
  SciTegic10102310092D

 35 34  0  0  0  0            999 V2000
   23.3998    0.0000    0.0000 C   0  0
   22.0998    0.7500    0.0000 C   0  0
   20.7998    0.0000    0.0000 C   0  0
   19.4998    0.7500    0.0000 C   0  0
   18.1999    0.0000    0.0000 C   0  0
   16.8999    0.7500    0.0000 C   0  0
   15.5999    0.0000    0.0000 C   0  0
   14.2999    0.7500    0.0000 C   0  0
   12.9999    0.0000    0.0000 C   0  0
   11.6999    0.7500    0.0000 C   0  0
   10.3999    0.0000    0.0000 C   0  0
    9.0999    0.7500    0.0000 C   0  0
    7.7999    0.0000    0.0000 C   0  0
    6.5000    0.7500    0.0000 C   0  0
    5.2000    0.0000    0.0000 C   0  0
    3.9000    0.7500    0.0000 C   0  0
    2.6000    0.0000    0.0000 C   0  0  3  0  0  0
    2.6000   -1.5000    0.0000 O   0  0
    1.3000    0.7500    0.0000 C   0  0  3  0  0  0
    0.0007    0.0004    0.0000 N   0  0
    1.3000    2.2500    0.0000 C   0  0
   24.6998    0.7500    0.0000 C   0  0
   25.9998    0.0000    0.0000 C   0  0
   27.2998    0.7500    0.0000 C   0  0
   28.5998    0.0000    0.0000 C   0  0  3  0  0  0
   28.5998   -1.5000    0.0000 O   0  0
   29.8998    0.7500    0.0000 C   0  0
   31.1998    0.0000    0.0000 C   0  0
   32.4998    0.7500    0.0000 C   0  0
   33.7997    0.0000    0.0000 C   0  0
   35.0997    0.7500    0.0000 C   0  0  3  0  0  0
   36.3997    0.0000    0.0000 C   0  0  3  0  0  0
   36.3997   -1.5000    0.0000 C   0  0
   37.6990    0.7496    0.0000 N   0  0
   35.0997    2.2500    0.0000 O   0  0
  1  2  1  0
  2  3  1  0
  3  4  2  0
  4  5  1  0
  5  6  1  0
  6  7  2  0
  7  8  1  0
  8  9  1  0
  9 10  2  0
 10 11  1  0
 11 12  1  0
 12 13  1  0
 13 14  1  0
 14 15  1  0
 15 16  1  0
 16 17  1  0
 17 18  1  4
 17 19  1  0
 19 20  1  4
 19 21  1  0
  1 22  2  0
 22 23  1  0
 23 24  2  0
 24 25  1  0
 25 26  1  4
 25 27  1  0
 27 28  1  0
 28 29  2  0
 29 30  1  0
 30 31  1  0
 31 32  1  0
 32 33  1  4
 32 34  1  0
 31 35  1  4
M  END
> <Smiles>
C(/C\C=C\C\C=C\C\C=C\CCCCCCC(O)C(N)C)=C\C=C\C(O)C\C=C\CC(C(C)N)O

> <IC50_uM>
2.51E-06

> <pIC50>
11.60032628

> <Activity>
1

$$$$

  SciTegic10102310092D

 34 33  0  0  0  0            999 V2000
   23.3998    0.0000    0.0000 C   0  0
   22.0998    0.7500    0.0000 C   0  0
   20.7998    0.0000    0.0000 C   0  0
   19.4998    0.7500    0.0000 C   0  0
   18.1999    0.0000    0.0000 C   0  0
   16.8999    0.7500    0.0000 C   0  0
   15.5999    0.0000    0.0000 C   0  0
   14.2999    0.7500    0.0000 C   0  0
   12.9999    0.0000    0.0000 C   0  0
   11.6999    0.7500    0.0000 C   0  0
   10.3999    0.0000    0.0000 C   0  0
    9.0999    0.7500    0.0000 C   0  0
    7.7999    0.0000    0.0000 C   0  0
    6.5000    0.7500    0.0000 C   0  0
    5.2000    0.0000    0.0000 C   0  0
    3.9000    0.7500    0.0000 C   0  0
    2.6000    0.0000    0.0000 C   0  0  3  0  0  0
    2.6000   -1.5000    0.0000 O   0  0
    1.3000    0.7500    0.0000 C   0  0  3  0  0  0
    0.0007    0.0004    0.0000 N   0  0
    1.3000    2.2500    0.0000 C   0  0
   24.6998    0.7500    0.0000 C   0  0
   25.9998    0.0000    0.0000 C   0  0
   27.2998    0.7500    0.0000 C   0  0
   28.5998    0.0000    0.0000 C   0  0
   29.8998    0.7500    0.0000 C   0  0
   31.1998    0.0000    0.0000 C   0  0
   32.4998    0.7500    0.0000 C   0  0
   33.7997    0.0000    0.0000 C   0  0
   35.0997    0.7500    0.0000 C   0  0  3  0  0  0
   36.3997    0.0000    0.0000 C   0  0  3  0  0  0
   36.3997   -1.5000    0.0000 C   0  0
   37.6990    0.7496    0.0000 N   0  0
   35.0997    2.2500    0.0000 O   0  0
  1  2  1  0
  2  3  1  0
  3  4  2  0
  4  5  1  0
  5  6  1  0
  6  7  2  0
  7  8  1  0
  8  9  1  0
  9 10  2  0
 10 11  1  0
 11 12  1  0
 12 13  1  0
 13 14  1  0
 14 15  1  0
 15 16  1  0
 16 17  1  0
 17 18  1  4
 17 19  1  0
 19 20  1  4
 19 21  1  0
  1 22  2  0
 22 23  1  0
 23 24  1  0
 24 25  2  0
 25 26  1  0
 26 27  1  0
 27 28  2  0
 28 29  1  0
 29 30  1  0
 30 31  1  0
 31 32  1  4
 31 33  1  0
 30 34  1  4
M  END
> <Smiles>
C(/C\C=C\C\C=C\C\C=C\CCCCCCC(O)C(N)C)=C\C\C=C\C\C=C\CC(C(C)N)O

> <IC50_uM>
2.51E-06

> <pIC50>
11.60032628

> <Activity>
1

$$$$

  SciTegic10102310092D

 33 35  0  0  0  0            999 V2000
    3.8978   -2.2504    0.0000 N   0  0
    2.5988   -1.5004    0.0000 C   0  0
    1.2990   -0.7500    0.0000 C   0  0
    1.2990    0.7500    0.0000 C   0  0
    0.0000    1.5000    0.0000 C   0  0
    0.0000    3.0000    0.0000 Cl  0  0
   -1.2990    0.7500    0.0000 C   0  0
   -1.2990   -0.7500    0.0000 C   0  0
   -2.5972   -1.5031    0.0000 O   0  0
   -2.5951   -3.0039    0.0000 C   0  0
   -1.2935   -3.7495    0.0000 C   0  0
   -1.2883   -5.2495    0.0000 C   0  0
    0.0125   -5.9981    0.0000 O   0  0
    0.0156   -7.4989    0.0000 C   0  0
    1.3164   -8.2475    0.0000 C   0  0
    2.6141   -7.4953    0.0000 O   0  0
    1.3194   -9.7483    0.0000 N   0  0
    2.6202  -10.4969    0.0000 C   0  0
    3.9168   -9.7425    0.0000 C   0  0
    5.2184  -10.4881    0.0000 C   0  0
    5.2235  -11.9880    0.0000 C   0  0
    6.5259  -12.7340    0.0000 S   0  0
    6.5305  -14.2340    0.0000 N   0  0
    7.8228  -11.9804    0.0000 O   0  0
    7.8271  -13.4802    0.0000 O   0  0
    3.9271  -12.7425    0.0000 C   0  0
    2.6255  -11.9970    0.0000 C   0  0
    1.3290  -12.7514    0.0000 Cl  0  0
   -2.5847   -6.0040    0.0000 C   0  0
   -3.8863   -5.2585    0.0000 C   0  0
   -3.8915   -3.7585    0.0000 C   0  0
   -5.1932   -3.0130    0.0000 Cl  0  0
    0.0000   -1.5000    0.0000 C   0  0
  1  2  3  0
  2  3  1  0
  3  4  2  0
  4  5  1  0
  5  6  1  0
  5  7  2  0
  7  8  1  0
  8  9  1  0
  9 10  1  0
 10 11  2  0
 11 12  1  0
 12 13  1  0
 13 14  1  0
 14 15  1  0
 15 16  2  0
 15 17  1  0
 17 18  1  0
 18 19  2  0
 19 20  1  0
 20 21  2  0
 21 22  1  0
 22 23  1  0
 22 24  2  0
 22 25  2  0
 21 26  1  0
 26 27  2  0
 27 18  1  0
 27 28  1  0
 12 29  2  0
 29 30  1  0
 30 31  2  0
 31 10  1  0
 31 32  1  0
  8 33  2  0
 33  3  1  0
M  END
> <Smiles>
N#Cc1cc(Cl)cc(Oc2cc(OCC(=O)Nc3ccc(S(N)(=O)=O)cc3Cl)ccc2Cl)c1

> <IC50_uM>
0.00028

> <pIC50>
9.552841969

> <Activity>
1

$$$$

  SciTegic10102310092D

 34 37  0  0  0  0            999 V2000
    2.5983   -3.0004    0.0000 C   0  0
    2.5988   -1.5004    0.0000 S   0  0
    3.8983   -0.7512    0.0000 O   0  0
    3.8975   -2.2510    0.0000 O   0  0
    1.2990   -0.7500    0.0000 C   0  0
    1.2990    0.7500    0.0000 C   0  0
    0.0000    1.5000    0.0000 C   0  0
   -1.2990    0.7500    0.0000 C   0  0
   -1.2990   -0.7500    0.0000 C   0  0
    0.0000   -1.5000    0.0000 C   0  0
   -2.7248   -1.2135    0.0000 C   0  0
   -3.6065    0.0000    0.0000 C   0  0
   -2.7248    1.2135    0.0000 N   0  0
   -3.1905    2.6376    0.0000 C   0  0
   -2.1885    3.7539    0.0000 O   0  0
   -4.6589    2.9478    0.0000 C   0  0
   -5.1253    4.3743    0.0000 O   0  0
   -6.5937    4.6845    0.0000 C   0  0
   -7.0620    6.1095    0.0000 C   0  0
   -8.5303    6.4166    0.0000 C   0  0
   -9.5303    5.2986    0.0000 C   0  0
  -10.9986    5.6056    0.0000 Cl  0  0
   -9.0621    3.8735    0.0000 C   0  0
  -10.0604    2.7528    0.0000 O   0  0
   -9.5899    1.3277    0.0000 C   0  0
  -10.5860    0.2061    0.0000 C   0  0
  -10.1129   -1.2173    0.0000 C   0  0
  -11.1091   -2.3387    0.0000 Cl  0  0
   -8.6436   -1.5193    0.0000 C   0  0
   -7.6474   -0.3978    0.0000 C   0  0
   -6.1774   -0.7000    0.0000 C   0  0
   -4.7081   -1.0019    0.0000 N   0  0
   -8.1206    1.0256    0.0000 C   0  0
   -7.5939    3.5665    0.0000 C   0  0
  1  2  1  0
  2  3  2  0
  2  4  2  0
  2  5  1  0
  5  6  2  0
  6  7  1  0
  7  8  2  0
  8  9  1  0
  9 10  2  0
 10  5  1  0
  9 11  1  0
 11 12  1  0
 12 13  1  0
 13  8  1  0
 13 14  1  0
 14 15  2  0
 14 16  1  0
 16 17  1  0
 17 18  1  0
 18 19  2  0
 19 20  1  0
 20 21  2  0
 21 22  1  0
 21 23  1  0
 23 24  1  0
 24 25  1  0
 25 26  2  0
 26 27  1  0
 27 28  1  0
 27 29  2  0
 29 30  1  0
 30 31  1  0
 31 32  3  0
 30 33  2  0
 33 25  1  0
 23 34  2  0
 34 18  1  0
M  END
> <Smiles>
CS(=O)(=O)c1ccc2c(c1)CCN2C(=O)COc1ccc(Cl)c(Oc2cc(Cl)cc(C#N)c2)c1

> <IC50_uM>
0.00033

> <pIC50>
9.48148606

> <Activity>
1

$$$$

  SciTegic10102310092D

 27 29  0  0  0  0            999 V2000
    2.5981   -1.5000    0.0000 C   0  0
    1.2990   -0.7500    0.0000 C   0  0
    1.2990    0.7500    0.0000 C   0  0
    0.0000    1.5000    0.0000 C   0  0
    0.0000    3.0008    0.0000 C   0  0
    0.0000    4.5008    0.0000 N   0  0
   -1.2990    0.7500    0.0000 C   0  0
   -1.2990   -0.7500    0.0000 C   0  0
   -2.5981   -1.5000    0.0000 C   0  0
    0.0000   -1.5000    0.0000 C   0  0
    0.0031   -3.0008    0.0000 N   0  0
    1.3039   -3.7494    0.0000 C   0  0
    2.6005   -2.9949    0.0000 N   0  0
    3.9021   -3.7404    0.0000 C   0  0
    5.2008   -2.9882    0.0000 N   0  0
    6.5021   -3.7360    0.0000 C   0  0
    7.8012   -2.9860    0.0000 C   0  0
    9.1002   -3.7360    0.0000 C   0  0
    9.1002   -5.2360    0.0000 C   0  0
   10.4000   -5.9865    0.0000 C   0  0
   11.6990   -6.7365    0.0000 N   0  0
    7.8012   -5.9860    0.0000 C   0  0
    6.5021   -5.2360    0.0000 C   0  0
    3.9073   -5.2404    0.0000 N   0  0
    2.6108   -5.9949    0.0000 C   0  0
    1.3092   -5.2494    0.0000 C   0  0
    0.0128   -6.0039    0.0000 Br  0  0
  1  2  1  0
  2  3  2  0
  3  4  1  0
  4  5  1  0
  5  6  3  0
  4  7  2  0
  7  8  1  0
  8  9  1  0
  8 10  2  0
 10  2  1  0
 10 11  1  0
 11 12  1  0
 12 13  2  0
 13 14  1  0
 14 15  1  0
 15 16  1  0
 16 17  2  0
 17 18  1  0
 18 19  2  0
 19 20  1  0
 20 21  3  0
 19 22  1  0
 22 23  2  0
 23 16  1  0
 14 24  2  0
 24 25  1  0
 25 26  2  0
 26 12  1  0
 26 27  1  0
M  END
> <Smiles>
Cc1cc(C#N)cc(C)c1Nc1nc(Nc2ccc(C#N)cc2)ncc1Br

> <IC50_uM>
0.0004

> <pIC50>
9.397940009

> <Activity>
1

$$$$

  SciTegic10102310092D

 29 32  0  0  0  0            999 V2000
    4.6376   -7.8561    0.0000 N   0  0
    3.6376   -8.9741    0.0000 C   0  0
    2.6370  -10.0928    0.0000 C   0  0
    3.1053  -11.5178    0.0000 C   0  0
    2.1052  -12.6358    0.0000 C   0  0
    2.5735  -14.0609    0.0000 Cl  0  0
    0.6370  -12.3288    0.0000 C   0  0
    0.1687  -10.9038    0.0000 C   0  0
   -1.2997  -10.5936    0.0000 O   0  0
   -1.7662   -9.1671    0.0000 C   0  0
   -0.7624   -8.0525    0.0000 C   0  0
   -1.2256   -6.6258    0.0000 C   0  0
   -0.2234   -5.5086    0.0000 O   0  0
   -0.6890   -4.0818    0.0000 C   0  0
    0.3114   -2.9665    0.0000 C   0  0
    1.8032   -3.1233    0.0000 N   0  0
    2.4133   -1.7530    0.0000 N   0  0
    1.2990   -0.7500    0.0000 C   0  0
    1.2990    0.7500    0.0000 N   0  0
    0.0000    1.5000    0.0000 C   0  0
    0.0000    3.0000    0.0000 N   0  0
   -1.2990    0.7500    0.0000 C   0  0
   -1.2990   -0.7500    0.0000 C   0  0
    0.0000   -1.5000    0.0000 C   0  0
   -2.6928   -6.3138    0.0000 C   0  0
   -3.6967   -7.4283    0.0000 C   0  0
   -3.2334   -8.8550    0.0000 C   0  0
   -4.2373   -9.9695    0.0000 Cl  0  0
    1.1688   -9.7857    0.0000 C   0  0
  1  2  3  0
  2  3  1  0
  3  4  2  0
  4  5  1  0
  5  6  1  0
  5  7  2  0
  7  8  1  0
  8  9  1  0
  9 10  1  0
 10 11  2  0
 11 12  1  0
 12 13  1  0
 13 14  1  0
 14 15  1  0
 15 16  2  0
 16 17  1  0
 17 18  1  0
 18 19  2  0
 19 20  1  0
 20 21  1  0
 20 22  2  0
 22 23  1  0
 23 24  2  0
 24 15  1  0
 24 18  1  0
 12 25  2  0
 25 26  1  0
 26 27  2  0
 27 10  1  0
 27 28  1  0
  8 29  2  0
 29  3  1  0
M  END
> <Smiles>
N#Cc1cc(Cl)cc(Oc2cc(OCc3n[nH]c4nc(N)ccc34)ccc2Cl)c1

> <IC50_uM>
0.0004

> <pIC50>
9.397940009

> <Activity>
1

$$$$

  SciTegic10102310092D

 28 31  0  0  0  0            999 V2000
    4.6376   -7.8561    0.0000 N   0  0
    3.6376   -8.9741    0.0000 C   0  0
    2.6370  -10.0928    0.0000 C   0  0
    3.1053  -11.5178    0.0000 C   0  0
    2.1052  -12.6358    0.0000 C   0  0
    2.5735  -14.0609    0.0000 Cl  0  0
    0.6370  -12.3288    0.0000 C   0  0
    0.1687  -10.9038    0.0000 C   0  0
   -1.2997  -10.5936    0.0000 O   0  0
   -1.7662   -9.1671    0.0000 C   0  0
   -0.7624   -8.0525    0.0000 C   0  0
   -1.2256   -6.6258    0.0000 C   0  0
   -0.2234   -5.5086    0.0000 O   0  0
   -0.6890   -4.0818    0.0000 C   0  0
    0.3114   -2.9665    0.0000 C   0  0
    1.8032   -3.1233    0.0000 N   0  0
    2.4133   -1.7530    0.0000 N   0  0
    1.2990   -0.7500    0.0000 C   0  0
    1.2990    0.7500    0.0000 N   0  0
    0.0000    1.5000    0.0000 C   0  0
   -1.2990    0.7500    0.0000 C   0  0
   -1.2990   -0.7500    0.0000 C   0  0
    0.0000   -1.5000    0.0000 C   0  0
   -2.6928   -6.3138    0.0000 C   0  0
   -3.6967   -7.4283    0.0000 C   0  0
   -3.2334   -8.8550    0.0000 C   0  0
   -4.2373   -9.9695    0.0000 Cl  0  0
    1.1688   -9.7857    0.0000 C   0  0
  1  2  3  0
  2  3  1  0
  3  4  2  0
  4  5  1  0
  5  6  1  0
  5  7  2  0
  7  8  1  0
  8  9  1  0
  9 10  1  0
 10 11  2  0
 11 12  1  0
 12 13  1  0
 13 14  1  0
 14 15  1  0
 15 16  2  0
 16 17  1  0
 17 18  1  0
 18 19  2  0
 19 20  1  0
 20 21  2  0
 21 22  1  0
 22 23  2  0
 23 15  1  0
 23 18  1  0
 12 24  2  0
 24 25  1  0
 25 26  2  0
 26 10  1  0
 26 27  1  0
  8 28  2  0
 28  3  1  0
M  END
> <Smiles>
N#Cc1cc(Cl)cc(Oc2cc(OCc3n[nH]c4ncccc34)ccc2Cl)c1

> <IC50_uM>
0.0005

> <pIC50>
9.301029996

> <Activity>
1

$$$$

  SciTegic10102310092D

 28 30  0  0  0  0            999 V2000
    2.5981   -1.5000    0.0000 C   0  0
    1.2990   -0.7500    0.0000 C   0  0
    1.2990    0.7500    0.0000 C   0  0
    0.0000    1.5000    0.0000 C   0  0
   -0.0031    3.0008    0.0000 C   0  0
   -1.3039    3.7494    0.0000 C   0  0
   -1.3070    5.2502    0.0000 C   0  0
   -1.3101    6.7502    0.0000 N   0  0
   -1.2990    0.7500    0.0000 C   0  0
   -1.2990   -0.7500    0.0000 C   0  0
   -2.5981   -1.5000    0.0000 C   0  0
    0.0000   -1.5000    0.0000 C   0  0
    0.0031   -3.0008    0.0000 N   0  0
    1.3039   -3.7494    0.0000 C   0  0
    1.3092   -5.2494    0.0000 C   0  0
    2.6108   -5.9949    0.0000 C   0  0
    3.9073   -5.2404    0.0000 N   0  0
    3.9021   -3.7404    0.0000 C   0  0
    5.1977   -2.9829    0.0000 N   0  0
    5.1903   -1.4820    0.0000 C   0  0
    6.4841   -0.7230    0.0000 C   0  0
    6.4738    0.7770    0.0000 C   0  0
    5.1696    1.5180    0.0000 C   0  0
    5.1592    3.0188    0.0000 C   0  0
    5.1488    4.5187    0.0000 N   0  0
    3.8757    0.7590    0.0000 C   0  0
    3.8861   -0.7410    0.0000 C   0  0
    2.6004   -2.9949    0.0000 N   0  0
  1  2  1  0
  2  3  2  0
  3  4  1  0
  4  5  1  0
  5  6  2  0
  6  7  1  0
  7  8  3  0
  4  9  2  0
  9 10  1  0
 10 11  1  0
 10 12  2  0
 12  2  1  0
 12 13  1  0
 13 14  1  0
 14 15  2  0
 15 16  1  0
 16 17  2  0
 17 18  1  0
 18 19  1  0
 19 20  1  0
 20 21  2  0
 21 22  1  0
 22 23  2  0
 23 24  1  0
 24 25  3  0
 23 26  1  0
 26 27  2  0
 27 20  1  0
 18 28  2  0
 28 14  1  0
M  END
> <Smiles>
Cc1cc(/C=C/C#N)cc(C)c1Nc1ccnc(Nc2ccc(C#N)cc2)n1

> <IC50_uM>
0.00068

> <pIC50>
9.167491087

> <Activity>
1

$$$$

  SciTegic10102310092D

 37 40  0  0  0  0            999 V2000
    5.1908   -4.5097    0.0000 N   0  0
    3.8933   -3.7570    0.0000 C   0  0
    2.5951   -3.0039    0.0000 C   0  0
    2.5973   -1.5031    0.0000 C   0  0
    1.2990   -0.7500    0.0000 C   0  0
    1.2990    0.7500    0.0000 C   0  0
    0.0000    1.5000    0.0000 C   0  0
   -1.2990    0.7500    0.0000 C   0  0
   -2.6003    1.4977    0.0000 N   0  0
   -3.8990    0.7455    0.0000 C   0  0
   -3.8939   -0.7546    0.0000 N   0  0
   -5.1903   -1.5091    0.0000 C   0  0
   -5.1882   -3.0099    0.0000 N   0  0
   -6.4865   -3.7630    0.0000 C   0  0
   -6.4866   -5.2630    0.0000 C   0  0
   -7.7856   -6.0130    0.0000 C   0  0
   -9.0846   -5.2630    0.0000 C   0  0
  -10.3844   -6.0134    0.0000 C   0  0
  -11.6834   -6.7634    0.0000 N   0  0
   -9.0846   -3.7630    0.0000 C   0  0
   -7.7856   -3.0130    0.0000 C   0  0
   -6.4920   -0.7636    0.0000 N   0  0
   -6.4972    0.7364    0.0000 C   0  0
   -5.2007    1.4909    0.0000 C   0  0
   -5.2091    2.9917    0.0000 C   0  0
   -3.9140    3.7485    0.0000 O   0  0
   -6.5125    3.7357    0.0000 N   0  0
   -6.5208    5.2365    0.0000 C   0  0
   -7.8242    5.9805    0.0000 C   0  0
   -7.8326    7.4813    0.0000 C   0  0
   -9.1360    8.2253    0.0000 N   0  0
   -9.2842    9.7052    0.0000 C   0  0
  -10.7536   10.0068    0.0000 C   0  0
  -11.4945    8.7026    0.0000 C   0  0
  -10.4830    7.5949    0.0000 C   0  0
   -1.2990   -0.7500    0.0000 C   0  0
    0.0000   -1.5000    0.0000 C   0  0
  1  2  3  0
  2  3  1  0
  3  4  2  0
  4  5  1  0
  5  6  2  0
  6  7  1  0
  7  8  2  0
  8  9  1  0
  9 10  1  0
 10 11  2  0
 11 12  1  0
 12 13  1  0
 13 14  1  0
 14 15  2  0
 15 16  1  0
 16 17  2  0
 17 18  1  0
 18 19  3  0
 17 20  1  0
 20 21  2  0
 21 14  1  0
 12 22  2  0
 22 23  1  0
 23 24  2  0
 24 10  1  0
 24 25  1  0
 25 26  2  0
 25 27  1  0
 27 28  1  0
 28 29  1  0
 29 30  1  0
 30 31  1  0
 31 32  1  0
 32 33  1  0
 33 34  1  0
 34 35  1  0
 35 31  1  0
  8 36  1  0
 36 37  2  0
 37  5  1  0
M  END
> <Smiles>
N#C/C=C/c1ccc(Nc2nc(Nc3ccc(C#N)cc3)ncc2C(=O)NCCCN2CCCC2)cc1

> <IC50_uM>
0.0007943

> <pIC50>
9.100015437

> <Activity>
1

$$$$

  SciTegic10102310092D

 34 36  0  0  0  0            999 V2000
    2.5981   -1.5000    0.0000 C   0  0
    1.2990   -0.7500    0.0000 C   0  0
    1.2990    0.7500    0.0000 C   0  0
    0.0000    1.5000    0.0000 C   0  0
    0.0000    3.0008    0.0000 C   0  0
    0.0000    4.5008    0.0000 N   0  0
   -1.2990    0.7500    0.0000 C   0  0
   -1.2990   -0.7500    0.0000 C   0  0
   -2.5972   -1.5031    0.0000 C   0  0
   -3.8976   -0.7554    0.0000 O   0  0
   -2.5951   -3.0039    0.0000 C   0  0
   -1.2935   -3.7495    0.0000 C   0  0
   -1.2883   -5.2495    0.0000 C   0  0
    0.0134   -5.9950    0.0000 Cl  0  0
   -2.5847   -6.0040    0.0000 C   0  0
   -3.8863   -5.2585    0.0000 C   0  0
   -3.8915   -3.7585    0.0000 C   0  0
   -5.1954   -3.0153    0.0000 O   0  0
   -6.4915   -3.7721    0.0000 C   0  0
   -7.7954   -3.0289    0.0000 C   0  0
   -7.8032   -1.5289    0.0000 O   0  0
   -9.0914   -3.7857    0.0000 N   0  0
  -10.3953   -3.0425    0.0000 C   0  0
  -10.4007   -1.5425    0.0000 C   0  0
  -11.7023   -0.7971    0.0000 C   0  0
  -12.9987   -1.5516    0.0000 C   0  0
  -14.3011   -0.8058    0.0000 S   0  0
  -15.5973   -1.5608    0.0000 N   0  0
  -14.3073    0.6942    0.0000 O   0  0
  -15.6031   -0.0610    0.0000 O   0  0
  -12.9934   -3.0516    0.0000 C   0  0
  -11.6918   -3.7970    0.0000 C   0  0
  -11.6865   -5.2970    0.0000 C   0  0
    0.0000   -1.5000    0.0000 C   0  0
  1  2  1  0
  2  3  2  0
  3  4  1  0
  4  5  1  0
  5  6  3  0
  4  7  2  0
  7  8  1  0
  8  9  1  0
  9 10  2  0
  9 11  1  0
 11 12  2  0
 12 13  1  0
 13 14  1  0
 13 15  2  0
 15 16  1  0
 16 17  2  0
 17 11  1  0
 17 18  1  0
 18 19  1  0
 19 20  1  0
 20 21  2  0
 20 22  1  0
 22 23  1  0
 23 24  2  0
 24 25  1  0
 25 26  2  0
 26 27  1  0
 27 28  1  0
 27 29  2  0
 27 30  2  0
 26 31  1  0
 31 32  2  0
 32 23  1  0
 32 33  1  0
  8 34  2  0
 34  2  1  0
M  END
> <Smiles>
Cc1cc(C#N)cc(C(=O)c2cc(Cl)ccc2OCC(=O)Nc2ccc(S(N)(=O)=O)cc2C)c1

> <IC50_uM>
0.0008913

> <pIC50>
9.049976093

> <Activity>
1

$$$$

  SciTegic10102310092D

 27 28  0  0  0  0            999 V2000
    3.8983   -0.7566    0.0000 C   0  0
    2.5973   -1.5031    0.0000 C   0  0
    1.2990   -0.7500    0.0000 C   0  0
    1.2990    0.7500    0.0000 C   0  0
    2.5981    1.5000    0.0000 C   0  0
    0.0000    1.5000    0.0000 N   0  0
   -1.2990    0.7500    0.0000 C   0  0
   -2.5981    1.5000    0.0000 O   0  0
   -1.2990   -0.7500    0.0000 C   0  0
   -2.5972   -1.5031    0.0000 N   0  0
   -3.8976   -0.7554    0.0000 C   0  0
   -2.5951   -3.0039    0.0000 C   0  0
   -3.8933   -3.7570    0.0000 C   0  0
   -3.8912   -5.2578    0.0000 O   0  0
   -5.1887   -6.0105    0.0000 C   0  0
    0.0000   -1.5000    0.0000 C   0  0
    0.0031   -3.0008    0.0000 C   0  0
    1.3039   -3.7494    0.0000 C   0  0
    1.3092   -5.2494    0.0000 C   0  0
    2.6108   -5.9949    0.0000 C   0  0
    3.9073   -5.2404    0.0000 C   0  0
    3.9021   -3.7404    0.0000 C   0  0
    5.1977   -2.9829    0.0000 C   0  0
    5.1903   -1.4820    0.0000 C   0  0
    6.4859   -0.7245    0.0000 C   0  0
    7.7808    0.0327    0.0000 N   0  0
    2.6004   -2.9949    0.0000 C   0  0
  1  2  1  0
  2  3  1  0
  3  4  2  0
  4  5  1  0
  4  6  1  0
  6  7  1  0
  7  8  2  0
  7  9  1  0
  9 10  1  0
 10 11  1  0
 10 12  1  0
 12 13  1  0
 13 14  1  0
 14 15  1  0
  9 16  2  0
 16  3  1  0
 16 17  1  0
 17 18  1  0
 18 19  2  0
 19 20  1  0
 20 21  2  0
 21 22  1  0
 22 23  1  0
 23 24  2  0
 24 25  1  0
 25 26  3  0
 22 27  2  0
 27 18  1  0
M  END
> <Smiles>
CCc1c(C)[nH]c(=O)c(N(C)CCOC)c1Cc1cccc(/C=C/C#N)c1

> <IC50_uM>
0.001

> <pIC50>
9

> <Activity>
1

$$$$

  SciTegic10102310092D

 25 26  0  0  0  0            999 V2000
    3.8983   -0.7566    0.0000 C   0  0
    2.5973   -1.5031    0.0000 C   0  0
    1.2990   -0.7500    0.0000 C   0  0
    1.2990    0.7500    0.0000 C   0  0
    2.5981    1.5000    0.0000 C   0  0
    0.0000    1.5000    0.0000 N   0  0
   -1.2990    0.7500    0.0000 C   0  0
   -2.5981    1.5000    0.0000 O   0  0
   -1.2990   -0.7500    0.0000 C   0  0
   -2.5972   -1.5031    0.0000 N   0  0
   -3.8976   -0.7554    0.0000 C   0  0
   -2.5951   -3.0039    0.0000 C   0  0
   -3.8926   -3.7566    0.0000 C   0  0
    0.0000   -1.5000    0.0000 C   0  0
    0.0031   -3.0008    0.0000 C   0  0
    1.3039   -3.7494    0.0000 C   0  0
    1.3092   -5.2494    0.0000 C   0  0
    2.6108   -5.9949    0.0000 C   0  0
    3.9073   -5.2404    0.0000 C   0  0
    3.9021   -3.7404    0.0000 C   0  0
    5.1977   -2.9829    0.0000 C   0  0
    5.1903   -1.4820    0.0000 C   0  0
    6.4859   -0.7245    0.0000 C   0  0
    7.7808    0.0327    0.0000 N   0  0
    2.6004   -2.9949    0.0000 C   0  0
  1  2  1  0
  2  3  1  0
  3  4  2  0
  4  5  1  0
  4  6  1  0
  6  7  1  0
  7  8  2  0
  7  9  1  0
  9 10  1  0
 10 11  1  0
 10 12  1  0
 12 13  1  0
  9 14  2  0
 14  3  1  0
 14 15  1  0
 15 16  1  0
 16 17  2  0
 17 18  1  0
 18 19  2  0
 19 20  1  0
 20 21  1  0
 21 22  2  0
 22 23  1  0
 23 24  3  0
 20 25  2  0
 25 16  1  0
M  END
> <Smiles>
CCc1c(C)[nH]c(=O)c(N(C)CC)c1Cc1cccc(/C=C/C#N)c1

> <IC50_uM>
0.001

> <pIC50>
9

> <Activity>
1

$$$$

  SciTegic10102310092D

 24 25  0  0  0  0            999 V2000
    3.8983   -0.7566    0.0000 C   0  0
    2.5973   -1.5031    0.0000 C   0  0
    1.2990   -0.7500    0.0000 C   0  0
    1.2990    0.7500    0.0000 C   0  0
    2.5981    1.5000    0.0000 C   0  0
    0.0000    1.5000    0.0000 N   0  0
   -1.2990    0.7500    0.0000 C   0  0
   -2.5981    1.5000    0.0000 O   0  0
   -1.2990   -0.7500    0.0000 C   0  0
   -2.5972   -1.5031    0.0000 N   0  0
   -3.8976   -0.7554    0.0000 C   0  0
   -2.5951   -3.0039    0.0000 C   0  0
   -3.8933   -3.7570    0.0000 C   0  0
   -3.8912   -5.2578    0.0000 O   0  0
   -5.1887   -6.0105    0.0000 C   0  0
    0.0000   -1.5000    0.0000 C   0  0
    0.0031   -3.0008    0.0000 C   0  0
    1.3039   -3.7494    0.0000 C   0  0
    1.3092   -5.2494    0.0000 C   0  0
    2.6108   -5.9949    0.0000 C   0  0
    3.9073   -5.2404    0.0000 C   0  0
    3.9021   -3.7404    0.0000 C   0  0
    5.1985   -2.9859    0.0000 C   0  0
    2.6004   -2.9949    0.0000 C   0  0
  1  2  1  0
  2  3  1  0
  3  4  2  0
  4  5  1  0
  4  6  1  0
  6  7  1  0
  7  8  2  0
  7  9  1  0
  9 10  1  0
 10 11  1  0
 10 12  1  0
 12 13  1  0
 13 14  1  0
 14 15  1  0
  9 16  2  0
 16  3  1  0
 16 17  1  0
 17 18  1  0
 18 19  2  0
 19 20  1  0
 20 21  2  0
 21 22  1  0
 22 23  1  0
 22 24  2  0
 24 18  1  0
M  END
> <Smiles>
CCc1c(C)[nH]c(=O)c(N(C)CCOC)c1Cc1cccc(C)c1

> <IC50_uM>
0.001

> <pIC50>
9

> <Activity>
1

$$$$

  SciTegic10102310092D

 27 29  0  0  0  0            999 V2000
    3.8978   -2.2504    0.0000 N   0  0
    2.5988   -1.5004    0.0000 C   0  0
    1.2990   -0.7500    0.0000 C   0  0
    1.2990    0.7500    0.0000 C   0  0
    0.0000    1.5000    0.0000 C   0  0
    0.0000    3.0000    0.0000 Cl  0  0
   -1.2990    0.7500    0.0000 C   0  0
   -1.2990   -0.7500    0.0000 C   0  0
   -2.5972   -1.5031    0.0000 O   0  0
   -2.5951   -3.0039    0.0000 C   0  0
   -3.8915   -3.7585    0.0000 C   0  0
   -5.1932   -3.0131    0.0000 F   0  0
   -3.8863   -5.2585    0.0000 C   0  0
   -5.1819   -6.0161    0.0000 C   0  0
   -5.1746   -7.5169    0.0000 C   0  0
   -6.4702   -8.2745    0.0000 C   0  0
   -6.4650   -9.7745    0.0000 C   0  0
   -7.7615  -10.5290    0.0000 C   0  0
   -9.0631   -9.7835    0.0000 N   0  0
   -9.0683   -8.2836    0.0000 C   0  0
   -7.7719   -7.5290    0.0000 C   0  0
   -2.5847   -6.0040    0.0000 N   0  0
   -1.2883   -5.2495    0.0000 C   0  0
    0.0134   -5.9950    0.0000 O   0  0
   -1.2935   -3.7495    0.0000 C   0  0
    0.0030   -2.9951    0.0000 Br  0  0
    0.0000   -1.5000    0.0000 C   0  0
  1  2  3  0
  2  3  1  0
  3  4  2  0
  4  5  1  0
  5  6  1  0
  5  7  2  0
  7  8  1  0
  8  9  1  0
  9 10  1  0
 10 11  1  0
 11 12  1  0
 11 13  2  0
 13 14  1  0
 14 15  1  0
 15 16  1  0
 16 17  2  0
 17 18  1  0
 18 19  2  0
 19 20  1  0
 20 21  2  0
 21 16  1  0
 13 22  1  0
 22 23  1  0
 23 24  2  0
 23 25  1  0
 25 10  2  0
 25 26  1  0
  8 27  2  0
 27  3  1  0
M  END
> <Smiles>
N#Cc1cc(Cl)cc(Oc2c(F)c(CCc3ccncc3)[nH]c(=O)c2Br)c1

> <IC50_uM>
0.001

> <pIC50>
9

> <Activity>
1

$$$$

  SciTegic10102310092D

 34 36  0  0  0  0            999 V2000
    2.5981   -1.5000    0.0000 C   0  0
    1.2990   -0.7500    0.0000 C   0  0
    1.2990    0.7500    0.0000 C   0  0
    0.0000    1.5000    0.0000 C   0  0
    0.0000    3.0008    0.0000 S   0  0
   -1.2993    3.7504    0.0000 N   0  0
    1.2985    3.7517    0.0000 O   0  0
   -0.0007    4.5008    0.0000 O   0  0
   -1.2990    0.7500    0.0000 C   0  0
   -1.2990   -0.7500    0.0000 C   0  0
    0.0000   -1.5000    0.0000 C   0  0
   -0.0031   -3.0008    0.0000 N   0  0
   -1.3039   -3.7494    0.0000 C   0  0
   -2.6016   -2.9971    0.0000 O   0  0
   -1.3070   -5.2502    0.0000 C   0  0
   -2.6078   -5.9988    0.0000 O   0  0
   -2.6109   -7.4996    0.0000 C   0  0
   -1.3118   -8.2497    0.0000 C   0  0
   -1.3119   -9.7497    0.0000 C   0  0
   -2.6109  -10.4997    0.0000 C   0  0
   -2.6110  -11.9997    0.0000 Cl  0  0
   -3.9100   -9.7497    0.0000 C   0  0
   -3.9099   -8.2497    0.0000 C   0  0
   -5.2112   -7.5019    0.0000 C   0  0
   -5.2139   -6.0019    0.0000 O   0  0
   -6.5099   -8.2542    0.0000 C   0  0
   -7.8116   -7.5088    0.0000 C   0  0
   -9.1080   -8.2633    0.0000 C   0  0
  -10.4097   -7.5178    0.0000 Cl  0  0
   -9.1028   -9.7633    0.0000 C   0  0
   -7.8012  -10.5088    0.0000 C   0  0
   -7.7960  -12.0096    0.0000 C   0  0
   -7.7908  -13.5096    0.0000 N   0  0
   -6.5048   -9.7543    0.0000 C   0  0
  1  2  1  0
  2  3  2  0
  3  4  1  0
  4  5  1  0
  5  6  1  0
  5  7  2  0
  5  8  2  0
  4  9  2  0
  9 10  1  0
 10 11  2  0
 11  2  1  0
 11 12  1  0
 12 13  1  0
 13 14  2  0
 13 15  1  0
 15 16  1  0
 16 17  1  0
 17 18  2  0
 18 19  1  0
 19 20  2  0
 20 21  1  0
 20 22  1  0
 22 23  2  0
 23 17  1  0
 23 24  1  0
 24 25  2  0
 24 26  1  0
 26 27  2  0
 27 28  1  0
 28 29  1  0
 28 30  2  0
 30 31  1  0
 31 32  1  0
 32 33  3  0
 31 34  2  0
 34 26  1  0
M  END
> <Smiles>
Cc1cc(S(N)(=O)=O)ccc1NC(=O)COc1ccc(Cl)cc1C(=O)c1cc(Cl)cc(C#N)c1

> <IC50_uM>
0.001

> <pIC50>
9

> <Activity>
1

$$$$

  SciTegic10102310092D

 37 39  0  0  0  0            999 V2000
    2.5981   -1.5000    0.0000 C   0  0
    1.2990   -0.7500    0.0000 C   0  0
    1.2990    0.7500    0.0000 C   0  0
    0.0000    1.5000    0.0000 C   0  0
    0.0000    3.0008    0.0000 S   0  0
   -1.2993    3.7504    0.0000 N   0  0
    1.2985    3.7517    0.0000 O   0  0
   -0.0007    4.5008    0.0000 O   0  0
   -1.2990    0.7500    0.0000 C   0  0
   -1.2990   -0.7500    0.0000 C   0  0
    0.0000   -1.5000    0.0000 C   0  0
   -0.0031   -3.0008    0.0000 N   0  0
   -1.3039   -3.7494    0.0000 C   0  0
   -2.6016   -2.9971    0.0000 O   0  0
   -1.3070   -5.2502    0.0000 C   0  0
   -2.6078   -5.9988    0.0000 O   0  0
   -2.6109   -7.4996    0.0000 C   0  0
   -1.3118   -8.2497    0.0000 C   0  0
   -1.3119   -9.7497    0.0000 C   0  0
   -2.6109  -10.4997    0.0000 C   0  0
   -2.6110  -11.9997    0.0000 Cl  0  0
   -3.9100   -9.7497    0.0000 C   0  0
   -3.9099   -8.2497    0.0000 C   0  0
   -5.2112   -7.5019    0.0000 C   0  0
   -5.2139   -6.0019    0.0000 O   0  0
   -6.5099   -8.2542    0.0000 C   0  0
   -7.8116   -7.5088    0.0000 C   0  0
   -9.1080   -8.2633    0.0000 C   0  0
  -10.4104   -7.5174    0.0000 C   0  0
  -11.7120   -6.7719    0.0000 N   0  0
   -9.1028   -9.7633    0.0000 C   0  0
   -7.8012  -10.5088    0.0000 C   0  0
   -7.7960  -12.0096    0.0000 C   0  0
   -9.0919  -12.7649    0.0000 F   0  0
   -6.4941  -12.7547    0.0000 F   0  0
   -7.7901  -13.5096    0.0000 F   0  0
   -6.5048   -9.7543    0.0000 C   0  0
  1  2  1  0
  2  3  2  0
  3  4  1  0
  4  5  1  0
  5  6  1  0
  5  7  2  0
  5  8  2  0
  4  9  2  0
  9 10  1  0
 10 11  2  0
 11  2  1  0
 11 12  1  0
 12 13  1  0
 13 14  2  0
 13 15  1  0
 15 16  1  0
 16 17  1  0
 17 18  2  0
 18 19  1  0
 19 20  2  0
 20 21  1  0
 20 22  1  0
 22 23  2  0
 23 17  1  0
 23 24  1  0
 24 25  2  0
 24 26  1  0
 26 27  2  0
 27 28  1  0
 28 29  1  0
 29 30  3  0
 28 31  2  0
 31 32  1  0
 32 33  1  0
 33 34  1  0
 33 35  1  0
 33 36  1  0
 32 37  2  0
 37 26  1  0
M  END
> <Smiles>
Cc1cc(S(N)(=O)=O)ccc1NC(=O)COc1ccc(Cl)cc1C(=O)c1cc(C#N)cc(C(F)(F)F)c1

> <IC50_uM>
0.001096

> <pIC50>
8.960189446

> <Activity>
1

$$$$

  SciTegic10102310092D

 28 31  0  0  0  0            999 V2000
    4.6376   -7.8561    0.0000 N   0  0
    3.6376   -8.9741    0.0000 C   0  0
    2.6370  -10.0928    0.0000 C   0  0
    3.1053  -11.5178    0.0000 C   0  0
    2.1052  -12.6358    0.0000 C   0  0
    2.5735  -14.0609    0.0000 Cl  0  0
    0.6370  -12.3288    0.0000 C   0  0
    0.1687  -10.9038    0.0000 C   0  0
   -1.2997  -10.5936    0.0000 O   0  0
   -1.7662   -9.1671    0.0000 C   0  0
   -0.7624   -8.0525    0.0000 C   0  0
   -1.2256   -6.6258    0.0000 C   0  0
   -0.2234   -5.5086    0.0000 O   0  0
   -0.6890   -4.0818    0.0000 C   0  0
    0.3114   -2.9665    0.0000 C   0  0
    1.8032   -3.1233    0.0000 N   0  0
    2.4133   -1.7530    0.0000 N   0  0
    1.2990   -0.7500    0.0000 C   0  0
    1.2990    0.7500    0.0000 C   0  0
    0.0000    1.5000    0.0000 C   0  0
   -1.2990    0.7500    0.0000 C   0  0
   -1.2990   -0.7500    0.0000 C   0  0
    0.0000   -1.5000    0.0000 C   0  0
   -2.6928   -6.3138    0.0000 C   0  0
   -3.6967   -7.4283    0.0000 C   0  0
   -3.2334   -8.8550    0.0000 C   0  0
   -4.2373   -9.9695    0.0000 Cl  0  0
    1.1688   -9.7857    0.0000 C   0  0
  1  2  3  0
  2  3  1  0
  3  4  2  0
  4  5  1  0
  5  6  1  0
  5  7  2  0
  7  8  1  0
  8  9  1  0
  9 10  1  0
 10 11  2  0
 11 12  1  0
 12 13  1  0
 13 14  1  0
 14 15  1  0
 15 16  2  0
 16 17  1  0
 17 18  1  0
 18 19  2  0
 19 20  1  0
 20 21  2  0
 21 22  1  0
 22 23  2  0
 23 15  1  0
 23 18  1  0
 12 24  2  0
 24 25  1  0
 25 26  2  0
 26 10  1  0
 26 27  1  0
  8 28  2  0
 28  3  1  0
M  END
> <Smiles>
N#Cc1cc(Cl)cc(Oc2cc(OCc3n[nH]c4ccccc34)ccc2Cl)c1

> <IC50_uM>
0.0011

> <pIC50>
8.958607315

> <Activity>
1

$$$$

  SciTegic10102310092D

 27 29  0  0  0  0            999 V2000
    2.5981   -1.5000    0.0000 C   0  0
    1.2990   -0.7500    0.0000 C   0  0
    1.2990    0.7500    0.0000 C   0  0
    0.0000    1.5000    0.0000 C   0  0
    0.0000    3.0008    0.0000 C   0  0
    0.0000    4.5008    0.0000 N   0  0
   -1.2990    0.7500    0.0000 C   0  0
   -1.2990   -0.7500    0.0000 C   0  0
   -2.5981   -1.5000    0.0000 C   0  0
    0.0000   -1.5000    0.0000 C   0  0
    0.0031   -3.0008    0.0000 N   0  0
    1.3039   -3.7494    0.0000 C   0  0
    2.6005   -2.9949    0.0000 N   0  0
    3.9021   -3.7404    0.0000 C   0  0
    5.2008   -2.9882    0.0000 N   0  0
    6.5021   -3.7360    0.0000 C   0  0
    7.8012   -2.9860    0.0000 C   0  0
    9.1002   -3.7360    0.0000 C   0  0
    9.1002   -5.2360    0.0000 C   0  0
   10.4000   -5.9865    0.0000 C   0  0
   11.6990   -6.7365    0.0000 N   0  0
    7.8012   -5.9860    0.0000 C   0  0
    6.5021   -5.2360    0.0000 C   0  0
    3.9073   -5.2404    0.0000 N   0  0
    2.6108   -5.9949    0.0000 C   0  0
    1.3092   -5.2494    0.0000 C   0  0
    0.0128   -6.0039    0.0000 Cl  0  0
  1  2  1  0
  2  3  2  0
  3  4  1  0
  4  5  1  0
  5  6  3  0
  4  7  2  0
  7  8  1  0
  8  9  1  0
  8 10  2  0
 10  2  1  0
 10 11  1  0
 11 12  1  0
 12 13  2  0
 13 14  1  0
 14 15  1  0
 15 16  1  0
 16 17  2  0
 17 18  1  0
 18 19  2  0
 19 20  1  0
 20 21  3  0
 19 22  1  0
 22 23  2  0
 23 16  1  0
 14 24  2  0
 24 25  1  0
 25 26  2  0
 26 12  1  0
 26 27  1  0
M  END
> <Smiles>
Cc1cc(C#N)cc(C)c1Nc1nc(Nc2ccc(C#N)cc2)ncc1Cl

> <IC50_uM>
0.0012

> <pIC50>
8.920818754

> <Activity>
1

$$$$

  SciTegic10102310092D

 26 29  0  0  0  0            999 V2000
   -5.7094   -9.6564    0.0000 C   0  0
   -6.1704   -8.2290    0.0000 C   0  0
   -7.6370   -7.9146    0.0000 C   0  0
   -8.0981   -6.4872    0.0000 C   0  0
   -9.5656   -6.1726    0.0000 C   0  0
  -11.0322   -5.8582    0.0000 N   0  0
   -7.0924   -5.3742    0.0000 C   0  0
   -5.6258   -5.6886    0.0000 C   0  0
   -5.1646   -7.1161    0.0000 C   0  0
   -3.6967   -7.4283    0.0000 C   0  0
   -3.2334   -8.8550    0.0000 C   0  0
   -1.7662   -9.1671    0.0000 C   0  0
   -0.7624   -8.0525    0.0000 N   0  0
   -1.2256   -6.6258    0.0000 C   0  0
   -0.2234   -5.5086    0.0000 N   0  0
   -0.6890   -4.0818    0.0000 C   0  0
    0.3114   -2.9665    0.0000 C   0  0
    1.8032   -3.1233    0.0000 N   0  0
    2.4133   -1.7530    0.0000 N   0  0
    1.2990   -0.7500    0.0000 C   0  0
    1.2990    0.7500    0.0000 N   0  0
    0.0000    1.5000    0.0000 C   0  0
   -1.2990    0.7500    0.0000 C   0  0
   -1.2990   -0.7500    0.0000 C   0  0
    0.0000   -1.5000    0.0000 C   0  0
   -2.6928   -6.3138    0.0000 C   0  0
  1  2  1  0
  2  3  2  0
  3  4  1  0
  4  5  1  0
  5  6  3  0
  4  7  2  0
  7  8  1  0
  8  9  2  0
  9  2  1  0
  9 10  1  0
 10 11  2  0
 11 12  1  0
 12 13  2  0
 13 14  1  0
 14 15  1  0
 15 16  1  0
 16 17  1  0
 17 18  2  0
 18 19  1  0
 19 20  1  0
 20 21  2  0
 21 22  1  0
 22 23  2  0
 23 24  1  0
 24 25  2  0
 25 17  1  0
 25 20  1  0
 14 26  2  0
 26 10  1  0
M  END
> <Smiles>
Cc1cc(C#N)ccc1-c1ccnc(NCc2n[nH]c3ncccc23)c1

> <IC50_uM>
0.0012

> <pIC50>
8.920818754

> <Activity>
1

$$$$

  SciTegic10102310092D

 38 41  0  0  0  0            999 V2000
    2.5981   -1.5000    0.0000 C   0  0
    1.2990   -0.7500    0.0000 C   0  0
    1.2990    0.7500    0.0000 C   0  0
    0.0000    1.5000    0.0000 C   0  0
   -0.0031    3.0008    0.0000 C   0  0
   -1.3039    3.7494    0.0000 C   0  0
   -1.3070    5.2502    0.0000 C   0  0
   -1.3101    6.7502    0.0000 N   0  0
   -1.2990    0.7500    0.0000 C   0  0
   -1.2990   -0.7500    0.0000 C   0  0
   -2.5981   -1.5000    0.0000 C   0  0
    0.0000   -1.5000    0.0000 C   0  0
    0.0031   -3.0008    0.0000 N   0  0
    1.3039   -3.7494    0.0000 C   0  0
    1.3092   -5.2494    0.0000 N   0  0
    2.6108   -5.9949    0.0000 C   0  0
    2.6191   -7.4957    0.0000 N   0  0
    3.9225   -8.2398    0.0000 C   0  0
    3.9330   -9.7398    0.0000 C   0  0
    5.2372  -10.4808    0.0000 C   0  0
    6.5310   -9.7218    0.0000 C   0  0
    7.8359  -10.4632    0.0000 C   0  0
    9.1401  -11.2042    0.0000 N   0  0
    6.5206   -8.2218    0.0000 C   0  0
    5.2164   -7.4808    0.0000 C   0  0
    3.9073   -5.2404    0.0000 N   0  0
    3.9021   -3.7404    0.0000 C   0  0
    5.1977   -2.9829    0.0000 O   0  0
    5.1903   -1.4820    0.0000 C   0  0
    6.4859   -0.7245    0.0000 C   0  0
    6.4786    0.7763    0.0000 C   0  0
    7.7742    1.5339    0.0000 N   0  0
    7.7691    3.0339    0.0000 C   0  0
    9.0655    3.7885    0.0000 C   0  0
   10.3671    3.0430    0.0000 O   0  0
   10.3723    1.5430    0.0000 C   0  0
    9.0759    0.7885    0.0000 C   0  0
    2.6004   -2.9949    0.0000 N   0  0
  1  2  1  0
  2  3  2  0
  3  4  1  0
  4  5  1  0
  5  6  2  0
  6  7  1  0
  7  8  3  0
  4  9  2  0
  9 10  1  0
 10 11  1  0
 10 12  2  0
 12  2  1  0
 12 13  1  0
 13 14  1  0
 14 15  2  0
 15 16  1  0
 16 17  1  0
 17 18  1  0
 18 19  2  0
 19 20  1  0
 20 21  2  0
 21 22  1  0
 22 23  3  0
 21 24  1  0
 24 25  2  0
 25 18  1  0
 16 26  2  0
 26 27  1  0
 27 28  1  0
 28 29  1  0
 29 30  1  0
 30 31  1  0
 31 32  1  0
 32 33  1  0
 33 34  1  0
 34 35  1  0
 35 36  1  0
 36 37  1  0
 37 32  1  0
 27 38  2  0
 38 14  1  0
M  END
> <Smiles>
Cc1cc(/C=C/C#N)cc(C)c1Nc1nc(Nc2ccc(C#N)cc2)nc(OCCCN2CCOCC2)n1

> <IC50_uM>
0.0013

> <pIC50>
8.886056648

> <Activity>
1

$$$$

  SciTegic10102310092D

 28 31  0  0  0  0            999 V2000
    4.6376   -7.8561    0.0000 N   0  0
    3.6376   -8.9741    0.0000 C   0  0
    2.6370  -10.0928    0.0000 C   0  0
    3.1053  -11.5178    0.0000 C   0  0
    2.1052  -12.6358    0.0000 C   0  0
    2.5735  -14.0609    0.0000 Cl  0  0
    0.6370  -12.3288    0.0000 C   0  0
    0.1687  -10.9038    0.0000 C   0  0
   -1.2997  -10.5936    0.0000 O   0  0
   -1.7662   -9.1671    0.0000 C   0  0
   -0.7624   -8.0525    0.0000 C   0  0
   -1.2256   -6.6258    0.0000 C   0  0
   -0.2234   -5.5086    0.0000 O   0  0
   -0.6890   -4.0818    0.0000 C   0  0
    0.3114   -2.9665    0.0000 C   0  0
    1.8032   -3.1233    0.0000 N   0  0
    2.4133   -1.7530    0.0000 N   0  0
    1.2990   -0.7500    0.0000 C   0  0
    1.2990    0.7500    0.0000 C   0  0
    0.0000    1.5000    0.0000 N   0  0
   -1.2990    0.7500    0.0000 C   0  0
   -1.2990   -0.7500    0.0000 C   0  0
    0.0000   -1.5000    0.0000 C   0  0
   -2.6928   -6.3138    0.0000 C   0  0
   -3.6967   -7.4283    0.0000 C   0  0
   -3.2334   -8.8550    0.0000 C   0  0
   -4.2373   -9.9695    0.0000 Cl  0  0
    1.1688   -9.7857    0.0000 C   0  0
  1  2  3  0
  2  3  1  0
  3  4  2  0
  4  5  1  0
  5  6  1  0
  5  7  2  0
  7  8  1  0
  8  9  1  0
  9 10  1  0
 10 11  2  0
 11 12  1  0
 12 13  1  0
 13 14  1  0
 14 15  1  0
 15 16  2  0
 16 17  1  0
 17 18  1  0
 18 19  2  0
 19 20  1  0
 20 21  2  0
 21 22  1  0
 22 23  2  0
 23 15  1  0
 23 18  1  0
 12 24  2  0
 24 25  1  0
 25 26  2  0
 26 10  1  0
 26 27  1  0
  8 28  2  0
 28  3  1  0
M  END
> <Smiles>
N#Cc1cc(Cl)cc(Oc2cc(OCc3n[nH]c4cnccc34)ccc2Cl)c1

> <IC50_uM>
0.0013

> <pIC50>
8.886056648

> <Activity>
1

$$$$

  SciTegic10102310092D

 21 23  0  0  1  0            999 V2000
    0.4505   -8.1187    0.0000 C   0  0
   -0.6894   -7.1436    0.0000 C   0  0
   -1.8348   -6.1949    0.0000 C   0  0  2  0  0  0
   -3.2443   -6.6708    0.0000 C   0  0
   -4.0059   -6.0227    0.0000 O   0  0
   -0.4810   -5.5489    0.0000 O   0  0
   -0.6928   -4.0817    0.0000 C   0  0  1  0  0  0
    0.3114   -2.9665    0.0000 N   0  0
    1.8032   -3.1233    0.0000 C   0  0
    2.4133   -1.7530    0.0000 N   0  0
    1.2990   -0.7500    0.0000 C   0  0
    1.2990    0.7500    0.0000 C   0  0
    2.5981    1.5000    0.0000 N   0  0
    0.0000    1.5000    0.0000 N   0  0
   -1.2990    0.7500    0.0000 C   0  0
   -2.5981    1.5000    0.0000 N   0  0
   -1.2990   -0.7500    0.0000 N   0  0
    0.0000   -1.5000    0.0000 C   0  0
   -2.1519   -3.7886    0.0000 C   0  0
   -2.8675   -5.1069    0.0000 C   0  0  2  0  0  0
   -3.8589   -5.2376    0.0000 O   0  0
  1  2  3  0
  3  2  1  1
  3  4  1  0
  4  5  1  0
  3  6  1  0
  6  7  1  0
  7  8  1  6
  8  9  1  0
  9 10  2  0
 10 11  1  0
 11 12  2  0
 12 13  1  0
 12 14  1  0
 14 15  2  0
 15 16  1  0
 15 17  1  0
 17 18  2  0
 18 11  1  0
 18  8  1  0
  7 19  1  0
 19 20  1  0
 20  3  1  0
 20 21  1  1
M  END
> <Smiles>
C#C[C@]1(CO)O[C@@H](n2cnc3c(N)nc(N)nc32)C[C@@H]1O

> <IC50_uM>
0.0013

> <pIC50>
8.886056648

> <Activity>
1

$$$$

  SciTegic10102310092D

 33 35  0  0  0  0            999 V2000
    2.5983   -3.0004    0.0000 C   0  0
    2.5988   -1.5004    0.0000 S   0  0
    3.8983   -0.7512    0.0000 O   0  0
    3.8975   -2.2510    0.0000 O   0  0
    1.2990   -0.7500    0.0000 C   0  0
    1.2990    0.7500    0.0000 C   0  0
    0.0000    1.5000    0.0000 C   0  0
   -1.2990    0.7500    0.0000 C   0  0
   -2.5973    1.5031    0.0000 N   0  0
   -2.5951    3.0039    0.0000 C   0  0
   -1.2948    3.7516    0.0000 O   0  0
   -3.8933    3.7570    0.0000 C   0  0
   -3.8912    5.2578    0.0000 O   0  0
   -5.1894    6.0109    0.0000 C   0  0
   -5.1895    7.5109    0.0000 C   0  0
   -6.4885    8.2609    0.0000 C   0  0
   -7.7876    7.5110    0.0000 C   0  0
   -9.0866    8.2610    0.0000 Cl  0  0
   -7.7876    6.0110    0.0000 C   0  0
   -9.0858    5.2579    0.0000 O   0  0
   -9.0837    3.7571    0.0000 C   0  0
  -10.3801    3.0025    0.0000 C   0  0
  -10.3750    1.5025    0.0000 C   0  0
  -11.6714    0.7481    0.0000 Cl  0  0
   -9.0734    0.7570    0.0000 C   0  0
   -7.7769    1.5115    0.0000 C   0  0
   -6.4746    0.7655    0.0000 C   0  0
   -5.1730    0.0200    0.0000 N   0  0
   -7.7821    3.0115    0.0000 C   0  0
   -6.4886    5.2609    0.0000 C   0  0
   -1.2990   -0.7500    0.0000 C   0  0
   -2.5981   -1.5000    0.0000 Cl  0  0
    0.0000   -1.5000    0.0000 C   0  0
  1  2  1  0
  2  3  2  0
  2  4  2  0
  2  5  1  0
  5  6  2  0
  6  7  1  0
  7  8  2  0
  8  9  1  0
  9 10  1  0
 10 11  2  0
 10 12  1  0
 12 13  1  0
 13 14  1  0
 14 15  2  0
 15 16  1  0
 16 17  2  0
 17 18  1  0
 17 19  1  0
 19 20  1  0
 20 21  1  0
 21 22  2  0
 22 23  1  0
 23 24  1  0
 23 25  2  0
 25 26  1  0
 26 27  1  0
 27 28  3  0
 26 29  2  0
 29 21  1  0
 19 30  2  0
 30 14  1  0
  8 31  1  0
 31 32  1  0
 31 33  2  0
 33  5  1  0
M  END
> <Smiles>
CS(=O)(=O)c1ccc(NC(=O)COc2ccc(Cl)c(Oc3cc(Cl)cc(C#N)c3)c2)c(Cl)c1

> <IC50_uM>
0.00133

> <pIC50>
8.876148359

> <Activity>
1

$$$$

  SciTegic10102310092D

 21 23  0  0  1  0            999 V2000
    0.4505   -8.1187    0.0000 C   0  0
   -0.6894   -7.1436    0.0000 C   0  0
   -1.8348   -6.1949    0.0000 C   0  0  2  0  0  0
   -3.2443   -6.6708    0.0000 C   0  0
   -4.0059   -6.0227    0.0000 O   0  0
   -0.4810   -5.5489    0.0000 O   0  0
   -0.6928   -4.0817    0.0000 C   0  0  1  0  0  0
    0.3114   -2.9665    0.0000 N   0  0
    1.8032   -3.1233    0.0000 C   0  0
    2.4133   -1.7530    0.0000 N   0  0
    1.2990   -0.7500    0.0000 C   0  0
    1.2990    0.7500    0.0000 C   0  0
    2.5981    1.5000    0.0000 O   0  0
    0.0000    1.5000    0.0000 N   0  0
   -1.2990    0.7500    0.0000 C   0  0
   -2.5981    1.5000    0.0000 N   0  0
   -1.2990   -0.7500    0.0000 N   0  0
    0.0000   -1.5000    0.0000 C   0  0
   -2.1519   -3.7886    0.0000 C   0  0
   -2.8675   -5.1069    0.0000 C   0  0  2  0  0  0
   -3.8589   -5.2376    0.0000 O   0  0
  1  2  3  0
  3  2  1  1
  3  4  1  0
  4  5  1  0
  3  6  1  0
  6  7  1  0
  7  8  1  6
  8  9  1  0
  9 10  2  0
 10 11  1  0
 11 12  1  0
 12 13  2  0
 12 14  1  0
 14 15  1  0
 15 16  1  0
 15 17  2  0
 17 18  1  0
 18 11  2  0
 18  8  1  0
  7 19  1  0
 19 20  1  0
 20  3  1  0
 20 21  1  1
M  END
> <Smiles>
C#C[C@]1(CO)O[C@@H](n2cnc3c(=O)[nH]c(N)nc32)C[C@@H]1O

> <IC50_uM>
0.0014

> <pIC50>
8.853871964

> <Activity>
1

$$$$

  SciTegic10102310092D

 29 32  0  0  0  0            999 V2000
   -3.4458   -7.0055    0.0000 N   0  0
   -2.7003   -8.3072    0.0000 C   0  0
   -1.9545   -9.6096    0.0000 C   0  0
   -2.7090  -10.9060    0.0000 C   0  0
   -1.9635  -12.2076    0.0000 C   0  0
   -2.7181  -13.5040    0.0000 Cl  0  0
   -0.4635  -12.2129    0.0000 C   0  0
    0.2911  -10.9165    0.0000 C   0  0
    1.7919  -10.9187    0.0000 O   0  0
    2.5450   -9.6205    0.0000 C   0  0
    1.7951   -8.3214    0.0000 C   0  0
    2.5451   -7.0223    0.0000 C   0  0
    1.7974   -5.7210    0.0000 O   0  0
    2.5497   -4.4224    0.0000 C   0  0
    1.8032   -3.1233    0.0000 C   0  0
    2.4133   -1.7530    0.0000 N   0  0
    1.2990   -0.7500    0.0000 C   0  0
    1.2990    0.7500    0.0000 C   0  0
    0.0000    1.5000    0.0000 C   0  0
   -1.2990    0.7500    0.0000 C   0  0
   -1.2990   -0.7500    0.0000 C   0  0
   -2.5981   -1.5000    0.0000 Cl  0  0
    0.0000   -1.5000    0.0000 C   0  0
    0.3114   -2.9665    0.0000 O   0  0
    4.0452   -7.0225    0.0000 C   0  0
    4.7951   -8.3215    0.0000 C   0  0
    4.0450   -9.6205    0.0000 C   0  0
    4.7950  -10.9196    0.0000 Cl  0  0
   -0.4545   -9.6148    0.0000 C   0  0
  1  2  3  0
  2  3  1  0
  3  4  2  0
  4  5  1  0
  5  6  1  0
  5  7  2  0
  7  8  1  0
  8  9  1  0
  9 10  1  0
 10 11  2  0
 11 12  1  0
 12 13  1  0
 13 14  1  0
 14 15  1  0
 15 16  2  0
 16 17  1  0
 17 18  2  0
 18 19  1  0
 19 20  2  0
 20 21  1  0
 21 22  1  0
 21 23  2  0
 23 17  1  0
 23 24  1  0
 24 15  1  0
 12 25  2  0
 25 26  1  0
 26 27  2  0
 27 10  1  0
 27 28  1  0
  8 29  2  0
 29  3  1  0
M  END
> <Smiles>
N#Cc1cc(Cl)cc(Oc2cc(OCc3nc4cccc(Cl)c4o3)ccc2Cl)c1

> <IC50_uM>
0.00141

> <pIC50>
8.850780887

> <Activity>
1

$$$$

  SciTegic10102310092D

 18 19  0  0  1  0            999 V2000
    6.1533    0.7377    0.0000 C   0  0
    5.5397   -0.6311    0.0000 C   0  0
    4.9531   -1.9978    0.0000 C   0  0  2  0  0  0
    5.8076   -3.2156    0.0000 C   0  0
    5.4010   -4.1292    0.0000 O   0  0
    3.9511   -0.8815    0.0000 O   0  0
    2.5987   -1.5004    0.0000 C   0  0  1  0  0  0
    1.2990   -0.7500    0.0000 N   0  0
    1.2990    0.7500    0.0000 C   0  0
    0.0000    1.5000    0.0000 C   0  0
   -1.2990    0.7500    0.0000 C   0  0
   -2.5981    1.5000    0.0000 N   0  0
   -1.2990   -0.7500    0.0000 N   0  0
    0.0000   -1.5000    0.0000 C   0  0
    0.0000   -3.0000    0.0000 O   0  0
    2.7343   -2.9815    0.0000 C   0  0
    4.2010   -3.2956    0.0000 C   0  0  2  0  0  0
    4.6063   -4.2098    0.0000 O   0  0
  1  2  3  0
  3  2  1  1
  3  4  1  0
  4  5  1  0
  3  6  1  0
  6  7  1  0
  7  8  1  6
  8  9  1  0
  9 10  2  0
 10 11  1  0
 11 12  1  0
 11 13  2  0
 13 14  1  0
 14  8  1  0
 14 15  2  0
  7 16  1  0
 16 17  1  0
 17  3  1  0
 17 18  1  1
M  END
> <Smiles>
C#C[C@]1(CO)O[C@@H](n2ccc(N)nc2=O)C[C@@H]1O

> <IC50_uM>
0.0015

> <pIC50>
8.823908741

> <Activity>
1

$$$$

  SciTegic10102310092D

 33 35  0  0  0  0            999 V2000
    2.5981   -1.5000    0.0000 C   0  0
    1.2990   -0.7500    0.0000 C   0  0
    1.2990    0.7500    0.0000 C   0  0
    0.0000    1.5000    0.0000 C   0  0
    0.0000    3.0008    0.0000 S   0  0
   -1.2993    3.7504    0.0000 N   0  0
    1.2985    3.7517    0.0000 O   0  0
   -0.0007    4.5008    0.0000 O   0  0
   -1.2990    0.7500    0.0000 C   0  0
   -1.2990   -0.7500    0.0000 C   0  0
    0.0000   -1.5000    0.0000 C   0  0
   -0.0031   -3.0008    0.0000 N   0  0
   -1.3039   -3.7494    0.0000 C   0  0
   -2.6016   -2.9971    0.0000 O   0  0
   -1.3070   -5.2502    0.0000 C   0  0
   -2.6078   -5.9988    0.0000 O   0  0
   -2.6109   -7.4996    0.0000 C   0  0
   -1.3118   -8.2497    0.0000 C   0  0
   -1.3119   -9.7497    0.0000 C   0  0
   -2.6109  -10.4997    0.0000 C   0  0
   -2.6110  -11.9997    0.0000 Cl  0  0
   -3.9100   -9.7497    0.0000 C   0  0
   -3.9099   -8.2497    0.0000 C   0  0
   -5.2112   -7.5019    0.0000 C   0  0
   -5.2139   -6.0019    0.0000 O   0  0
   -6.5099   -8.2542    0.0000 C   0  0
   -7.8116   -7.5088    0.0000 C   0  0
   -9.1080   -8.2633    0.0000 C   0  0
   -9.1028   -9.7633    0.0000 C   0  0
   -7.8012  -10.5088    0.0000 C   0  0
   -7.7960  -12.0096    0.0000 C   0  0
   -7.7908  -13.5096    0.0000 N   0  0
   -6.5048   -9.7543    0.0000 C   0  0
  1  2  1  0
  2  3  2  0
  3  4  1  0
  4  5  1  0
  5  6  1  0
  5  7  2  0
  5  8  2  0
  4  9  2  0
  9 10  1  0
 10 11  2  0
 11  2  1  0
 11 12  1  0
 12 13  1  0
 13 14  2  0
 13 15  1  0
 15 16  1  0
 16 17  1  0
 17 18  2  0
 18 19  1  0
 19 20  2  0
 20 21  1  0
 20 22  1  0
 22 23  2  0
 23 17  1  0
 23 24  1  0
 24 25  2  0
 24 26  1  0
 26 27  2  0
 27 28  1  0
 28 29  2  0
 29 30  1  0
 30 31  1  0
 31 32  3  0
 30 33  2  0
 33 26  1  0
M  END
> <Smiles>
Cc1cc(S(N)(=O)=O)ccc1NC(=O)COc1ccc(Cl)cc1C(=O)c1cccc(C#N)c1

> <IC50_uM>
0.001514

> <pIC50>
8.819874125

> <Activity>
1

$$$$

  SciTegic10102310092D

 26 28  0  0  0  0            999 V2000
    2.5981   -1.5000    0.0000 C   0  0
    1.2990   -0.7500    0.0000 C   0  0
    1.2990    0.7500    0.0000 C   0  0
    0.0000    1.5000    0.0000 C   0  0
   -0.0031    3.0008    0.0000 C   0  0  3  0  0  0
    1.2953    3.7535    0.0000 C   0  0
    2.5931    4.5058    0.0000 N   0  0
   -1.3039    3.7494    0.0000 C   0  0
   -2.6005    2.9949    0.0000 C   0  0
   -3.9021    3.7404    0.0000 C   0  0
   -3.9073    5.2404    0.0000 C   0  0
   -2.6108    5.9949    0.0000 C   0  0
   -1.3092    5.2494    0.0000 C   0  0
   -0.0128    6.0039    0.0000 F   0  0
   -1.2990    0.7500    0.0000 N   0  0
   -1.2990   -0.7500    0.0000 C   0  0
   -2.5972   -1.5031    0.0000 N   0  0
   -2.5951   -3.0039    0.0000 C   0  0
   -3.8915   -3.7585    0.0000 C   0  0
   -3.8863   -5.2585    0.0000 C   0  0
   -2.5847   -6.0040    0.0000 C   0  0
   -2.5795   -7.5048    0.0000 C   0  0
   -2.5743   -9.0048    0.0000 N   0  0
   -1.2883   -5.2495    0.0000 C   0  0
   -1.2935   -3.7495    0.0000 C   0  0
    0.0000   -1.5000    0.0000 N   0  0
  1  2  1  0
  2  3  2  0
  3  4  1  0
  4  5  1  0
  5  6  1  4
  6  7  3  0
  5  8  1  0
  8  9  2  0
  9 10  1  0
 10 11  2  0
 11 12  1  0
 12 13  2  0
 13  8  1  0
 13 14  1  0
  4 15  2  0
 15 16  1  0
 16 17  1  0
 17 18  1  0
 18 19  2  0
 19 20  1  0
 20 21  2  0
 21 22  1  0
 22 23  3  0
 21 24  1  0
 24 25  2  0
 25 18  1  0
 16 26  2  0
 26  2  1  0
M  END
> <Smiles>
Cc1cc(C(C#N)c2ccccc2F)nc(Nc2ccc(C#N)cc2)n1

> <IC50_uM>
0.0018

> <pIC50>
8.744727495

> <Activity>
1

$$$$

  SciTegic10102310092D

 29 32  0  0  0  0            999 V2000
    3.3024   -5.7198    0.0000 N   0  0
    2.5524   -4.4208    0.0000 C   0  0
    1.8032   -3.1233    0.0000 C   0  0
    2.4133   -1.7530    0.0000 C   0  0
    1.2990   -0.7500    0.0000 C   0  0
    1.2990    0.7500    0.0000 C   0  0
    2.5972    1.5031    0.0000 O   0  0
    2.5951    3.0039    0.0000 C   0  0
    1.2934    3.7495    0.0000 C   0  0
    1.2883    5.2495    0.0000 C   0  0
    2.5847    6.0040    0.0000 C   0  0
    3.8863    5.2585    0.0000 C   0  0
    3.8915    3.7585    0.0000 C   0  0
    5.1954    3.0153    0.0000 O   0  0
    6.4915    3.7721    0.0000 C   0  0
    7.7954    3.0289    0.0000 C   0  0
    9.0914    3.7857    0.0000 N   0  0
    9.0810    5.2858    0.0000 C   0  0
   10.3748    6.0448    0.0000 C   0  0
   11.6791    5.3038    0.0000 C   0  0
   12.9729    6.0629    0.0000 O   0  0
   11.6895    3.8039    0.0000 N   0  0
   10.3957    3.0449    0.0000 C   0  0
   10.4062    1.5449    0.0000 O   0  0
    0.0000    1.5000    0.0000 C   0  0
   -1.2990    0.7500    0.0000 C   0  0
   -1.2990   -0.7500    0.0000 C   0  0
    0.0000   -1.5000    0.0000 N   0  0
    0.3114   -2.9665    0.0000 C   0  0
  1  2  3  0
  2  3  1  0
  3  4  1  0
  4  5  2  0
  5  6  1  0
  6  7  1  0
  7  8  1  0
  8  9  2  0
  9 10  1  0
 10 11  2  0
 11 12  1  0
 12 13  2  0
 13  8  1  0
 13 14  1  0
 14 15  1  0
 15 16  1  0
 16 17  1  0
 17 18  1  0
 18 19  2  0
 19 20  1  0
 20 21  2  0
 20 22  1  0
 22 23  1  0
 23 17  1  0
 23 24  2  0
  6 25  2  0
 25 26  1  0
 26 27  2  0
 27 28  1  0
 28  5  1  0
 28 29  1  0
 29  3  2  0
M  END
> <Smiles>
N#Cc1cc2c(Oc3ccccc3OCCn3ccc(=O)[nH]c3=O)cccn2c1

> <IC50_uM>
0.0019

> <pIC50>
8.721246399

> <Activity>
1

$$$$

  SciTegic10102310092D

 37 39  0  0  0  0            999 V2000
    3.8988   -3.7512    0.0000 C   0  0
    2.5997   -3.0012    0.0000 N   0  0
    2.5988   -1.5004    0.0000 S   0  0
    3.8976   -0.7500    0.0000 O   0  0
    3.8982   -2.2498    0.0000 O   0  0
    1.2990   -0.7500    0.0000 C   0  0
    1.2990    0.7500    0.0000 C   0  0
    0.0000    1.5000    0.0000 C   0  0
   -1.2990    0.7500    0.0000 C   0  0
   -2.5973    1.5031    0.0000 N   0  0
   -2.5951    3.0039    0.0000 C   0  0
   -1.2948    3.7516    0.0000 O   0  0
   -3.8933    3.7570    0.0000 C   0  0
   -3.8912    5.2578    0.0000 O   0  0
   -5.1894    6.0109    0.0000 C   0  0
   -6.4886    5.2609    0.0000 C   0  0
   -7.7876    6.0110    0.0000 C   0  0
   -7.7876    7.5110    0.0000 C   0  0
   -9.0866    8.2610    0.0000 Cl  0  0
   -6.4885    8.2609    0.0000 C   0  0
   -5.1895    7.5109    0.0000 C   0  0
   -3.8913    8.2640    0.0000 C   0  0
   -2.5909    7.5163    0.0000 O   0  0
   -3.8934    9.7648    0.0000 C   0  0
   -2.5970   10.5194    0.0000 C   0  0
   -2.6022   12.0194    0.0000 C   0  0
   -1.3058   12.7739    0.0000 F   0  0
   -3.9039   12.7649    0.0000 C   0  0
   -5.2003   12.0104    0.0000 C   0  0
   -6.5026   12.7563    0.0000 C   0  0
   -6.5088   14.2563    0.0000 F   0  0
   -7.7988   12.0014    0.0000 F   0  0
   -7.8046   13.5012    0.0000 F   0  0
   -5.1951   10.5104    0.0000 C   0  0
   -1.2990   -0.7500    0.0000 C   0  0
   -2.5981   -1.5000    0.0000 C   0  0
    0.0000   -1.5000    0.0000 C   0  0
  1  2  1  0
  2  3  1  0
  3  4  2  0
  3  5  2  0
  3  6  1  0
  6  7  2  0
  7  8  1  0
  8  9  2  0
  9 10  1  0
 10 11  1  0
 11 12  2  0
 11 13  1  0
 13 14  1  0
 14 15  1  0
 15 16  2  0
 16 17  1  0
 17 18  2  0
 18 19  1  0
 18 20  1  0
 20 21  2  0
 21 15  1  0
 21 22  1  0
 22 23  2  0
 22 24  1  0
 24 25  2  0
 25 26  1  0
 26 27  1  0
 26 28  2  0
 28 29  1  0
 29 30  1  0
 30 31  1  0
 30 32  1  0
 30 33  1  0
 29 34  2  0
 34 24  1  0
  9 35  1  0
 35 36  1  0
 35 37  2  0
 37  6  1  0
M  END
> <Smiles>
CNS(=O)(=O)c1ccc(NC(=O)COc2ccc(Cl)cc2C(=O)c2cc(F)cc(C(F)(F)F)c2)c(C)c1

> <IC50_uM>
0.001995

> <pIC50>
8.7000571

> <Activity>
1

$$$$

  SciTegic10102310092D

 36 38  0  0  0  0            999 V2000
    2.5981   -1.5000    0.0000 C   0  0
    1.2990   -0.7500    0.0000 C   0  0
    1.2990    0.7500    0.0000 C   0  0
    0.0000    1.5000    0.0000 C   0  0
    0.0000    3.0008    0.0000 S   0  0
   -1.2993    3.7504    0.0000 N   0  0
    1.2985    3.7517    0.0000 O   0  0
   -0.0007    4.5008    0.0000 O   0  0
   -1.2990    0.7500    0.0000 C   0  0
   -1.2990   -0.7500    0.0000 C   0  0
    0.0000   -1.5000    0.0000 C   0  0
   -0.0031   -3.0008    0.0000 N   0  0
   -1.3039   -3.7494    0.0000 C   0  0
   -2.6016   -2.9971    0.0000 O   0  0
   -1.3070   -5.2502    0.0000 C   0  0
   -2.6078   -5.9988    0.0000 O   0  0
   -2.6109   -7.4996    0.0000 C   0  0
   -1.3118   -8.2497    0.0000 C   0  0
   -1.3119   -9.7497    0.0000 C   0  0
   -2.6109  -10.4997    0.0000 C   0  0
   -2.6110  -11.9997    0.0000 Cl  0  0
   -3.9100   -9.7497    0.0000 C   0  0
   -3.9099   -8.2497    0.0000 C   0  0
   -5.2112   -7.5019    0.0000 C   0  0
   -5.2139   -6.0019    0.0000 O   0  0
   -6.5099   -8.2542    0.0000 C   0  0
   -7.8116   -7.5088    0.0000 C   0  0
   -9.1080   -8.2633    0.0000 C   0  0
  -10.4097   -7.5178    0.0000 F   0  0
   -9.1028   -9.7633    0.0000 C   0  0
   -7.8012  -10.5088    0.0000 C   0  0
   -7.7960  -12.0096    0.0000 C   0  0
   -9.0919  -12.7649    0.0000 F   0  0
   -6.4941  -12.7547    0.0000 F   0  0
   -7.7901  -13.5096    0.0000 F   0  0
   -6.5048   -9.7543    0.0000 C   0  0
  1  2  1  0
  2  3  2  0
  3  4  1  0
  4  5  1  0
  5  6  1  0
  5  7  2  0
  5  8  2  0
  4  9  2  0
  9 10  1  0
 10 11  2  0
 11  2  1  0
 11 12  1  0
 12 13  1  0
 13 14  2  0
 13 15  1  0
 15 16  1  0
 16 17  1  0
 17 18  2  0
 18 19  1  0
 19 20  2  0
 20 21  1  0
 20 22  1  0
 22 23  2  0
 23 17  1  0
 23 24  1  0
 24 25  2  0
 24 26  1  0
 26 27  2  0
 27 28  1  0
 28 29  1  0
 28 30  2  0
 30 31  1  0
 31 32  1  0
 32 33  1  0
 32 34  1  0
 32 35  1  0
 31 36  2  0
 36 26  1  0
M  END
> <Smiles>
Cc1cc(S(N)(=O)=O)ccc1NC(=O)COc1ccc(Cl)cc1C(=O)c1cc(F)cc(C(F)(F)F)c1

> <IC50_uM>
0.001995

> <pIC50>
8.7000571

> <Activity>
1

$$$$

  SciTegic10102310092D

 25 26  0  0  0  0            999 V2000
    3.8983   -0.7566    0.0000 C   0  0
    2.5973   -1.5031    0.0000 C   0  0
    1.2990   -0.7500    0.0000 C   0  0
    1.2990    0.7500    0.0000 C   0  0
    2.5981    1.5000    0.0000 C   0  0
    0.0000    1.5000    0.0000 N   0  0
   -1.2990    0.7500    0.0000 C   0  0
   -2.5981    1.5000    0.0000 O   0  0
   -1.2990   -0.7500    0.0000 C   0  0
   -2.5972   -1.5031    0.0000 N   0  0
   -3.8976   -0.7554    0.0000 C   0  0
   -2.5951   -3.0039    0.0000 C   0  0
   -3.8933   -3.7570    0.0000 C   0  0
   -3.8912   -5.2578    0.0000 O   0  0
   -5.1887   -6.0105    0.0000 C   0  0
    0.0000   -1.5000    0.0000 C   0  0
    0.0031   -3.0008    0.0000 C   0  0
    1.3039   -3.7494    0.0000 C   0  0
    1.3092   -5.2494    0.0000 C   0  0
    2.6108   -5.9949    0.0000 C   0  0
    2.6160   -7.4949    0.0000 C   0  0
    3.9073   -5.2404    0.0000 C   0  0
    3.9021   -3.7404    0.0000 C   0  0
    5.1985   -2.9859    0.0000 C   0  0
    2.6004   -2.9949    0.0000 C   0  0
  1  2  1  0
  2  3  1  0
  3  4  2  0
  4  5  1  0
  4  6  1  0
  6  7  1  0
  7  8  2  0
  7  9  1  0
  9 10  1  0
 10 11  1  0
 10 12  1  0
 12 13  1  0
 13 14  1  0
 14 15  1  0
  9 16  2  0
 16  3  1  0
 16 17  1  0
 17 18  1  0
 18 19  2  0
 19 20  1  0
 20 21  1  0
 20 22  2  0
 22 23  1  0
 23 24  1  0
 23 25  2  0
 25 18  1  0
M  END
> <Smiles>
CCc1c(C)[nH]c(=O)c(N(C)CCOC)c1Cc1cc(C)cc(C)c1

> <IC50_uM>
0.002

> <pIC50>
8.698970004

> <Activity>
1

$$$$

  SciTegic10102310092D

 33 35  0  0  0  0            999 V2000
   19.4911    0.7864    0.0000 N   0  0
   18.1906    1.5338    0.0000 C   0  0
   16.8919    0.7816    0.0000 C   0  0
   15.5906    1.5293    0.0000 C   0  0
   14.2919    0.7771    0.0000 N   0  0
   12.9906    1.5249    0.0000 C   0  0
   12.9881    3.0249    0.0000 O   0  0
   11.6919    0.7726    0.0000 C   0  0
   10.3903    1.5181    0.0000 C   0  0
    9.0939    0.7636    0.0000 C   0  0
    9.0990   -0.7364    0.0000 C   0  0
    7.8003   -1.4887    0.0000 N   0  0
    6.4990   -0.7409    0.0000 C   0  0
    6.4964    0.7591    0.0000 O   0  0
    5.2003   -1.4932    0.0000 C   0  0
    3.8990   -0.7455    0.0000 S   0  0
    2.6003   -1.4977    0.0000 C   0  0
    2.6030   -2.9977    0.0000 O   0  0
    1.2990   -0.7500    0.0000 N   0  0
    1.2990    0.7500    0.0000 C   0  0
    0.0000    1.5000    0.0000 C   0  0
   -1.2990    0.7500    0.0000 C   0  0
   -1.2990   -0.7500    0.0000 C   0  0
   -2.5981   -1.5000    0.0000 C   0  0
   -2.5981   -3.0000    0.0000 C   0  0
   -3.8971   -3.7500    0.0000 Cl  0  0
   -1.2990   -3.7500    0.0000 C   0  0
    0.0000   -3.0000    0.0000 C   0  0
    1.2991   -3.7500    0.0000 Cl  0  0
    0.0000   -1.5000    0.0000 C   0  0
   10.4007   -1.4818    0.0000 C   0  0
   10.4059   -2.9818    0.0000 Cl  0  0
   11.6971   -0.7274    0.0000 C   0  0
  1  2  1  0
  2  3  1  0
  3  4  1  0
  4  5  1  0
  5  6  1  0
  6  7  2  0
  6  8  1  0
  8  9  2  0
  9 10  1  0
 10 11  2  0
 11 12  1  0
 12 13  1  0
 13 14  2  0
 13 15  1  0
 15 16  1  0
 16 17  1  0
 17 18  2  0
 17 19  1  0
 19 20  1  0
 20 21  1  0
 21 22  1  0
 22 23  1  0
 23 24  2  0
 24 25  1  0
 25 26  1  0
 25 27  2  0
 27 28  1  0
 28 29  1  0
 28 30  2  0
 30 23  1  0
 30 19  1  0
 11 31  1  0
 31 32  1  0
 31 33  2  0
 33  8  1  0
M  END
> <Smiles>
NCCCNC(=O)c1ccc(NC(=O)CSC(=O)N2CCCc3cc(Cl)cc(Cl)c32)c(Cl)c1

> <IC50_uM>
0.002

> <pIC50>
8.698970004

> <Activity>
1

$$$$

  SciTegic10102310092D

 27 29  0  0  0  0            999 V2000
    2.5981   -1.5000    0.0000 C   0  0
    1.2990   -0.7500    0.0000 C   0  0
    1.2990    0.7500    0.0000 C   0  0
    0.0000    1.5000    0.0000 C   0  0
   -0.0031    3.0008    0.0000 C   0  0
   -1.3039    3.7494    0.0000 C   0  0
   -2.6005    2.9949    0.0000 C   0  0
   -3.9021    3.7404    0.0000 C   0  0
   -3.9073    5.2404    0.0000 C   0  0
   -5.2089    5.9859    0.0000 Cl  0  0
   -2.6108    5.9949    0.0000 C   0  0
   -2.6129    7.4957    0.0000 O   0  0
   -1.3147    8.2488    0.0000 C   0  0
   -1.3146    9.7488    0.0000 C   0  0
   -0.0156   10.4988    0.0000 C   0  0
   -0.0156   11.9988    0.0000 F   0  0
    1.2834    9.7488    0.0000 C   0  0
    1.2834    8.2488    0.0000 C   0  0
    2.5832    7.4984    0.0000 C   0  0
    3.8822    6.7484    0.0000 N   0  0
   -0.0156    7.4988    0.0000 C   0  0
   -1.3092    5.2494    0.0000 C   0  0
   -0.0128    6.0039    0.0000 F   0  0
   -1.2990    0.7500    0.0000 N   0  0
   -1.2990   -0.7500    0.0000 N   0  0
    0.0000   -1.5000    0.0000 C   0  0
    0.0000   -3.0000    0.0000 O   0  0
  1  2  1  0
  2  3  2  0
  3  4  1  0
  4  5  1  0
  5  6  1  0
  6  7  2  0
  7  8  1  0
  8  9  2  0
  9 10  1  0
  9 11  1  0
 11 12  1  0
 12 13  1  0
 13 14  2  0
 14 15  1  0
 15 16  1  0
 15 17  2  0
 17 18  1  0
 18 19  1  0
 19 20  3  0
 18 21  2  0
 21 13  1  0
 11 22  2  0
 22  6  1  0
 22 23  1  0
  4 24  2  0
 24 25  1  0
 25 26  1  0
 26  2  1  0
 26 27  2  0
M  END
> <Smiles>
Cc1cc(Cc2ccc(Cl)c(Oc3cc(F)cc(C#N)c3)c2F)n[nH]c1=O

> <IC50_uM>
0.002

> <pIC50>
8.698970004

> <Activity>
1

$$$$

  SciTegic10102310092D

 23 24  0  0  1  0            999 V2000
    3.9075   -3.7444    0.0000 C   0  0
    2.6060   -2.9986    0.0000 O   0  0
    2.6003   -1.4977    0.0000 C   0  0  1  0  0  0
    1.2990   -0.7500    0.0000 C   0  0
    1.2990    0.7500    0.0000 N   0  0
    0.0000    1.5000    0.0000 C   0  0
   -0.0031    3.0008    0.0000 S   0  0
   -1.3039    3.7494    0.0000 C   0  0
   -1.3070    5.2494    0.0000 C   0  0
   -2.6017    2.9971    0.0000 C   0  0
   -1.2990    0.7500    0.0000 N   0  0
   -1.2990   -0.7500    0.0000 C   0  0
   -2.5981   -1.5000    0.0000 O   0  0
    0.0000   -1.5000    0.0000 C   0  0
    0.0000   -3.0000    0.0000 C   0  0
    3.8990   -0.7455    0.0000 C   0  0
    5.2007   -1.4909    0.0000 C   0  0
    5.2060   -2.9909    0.0000 F   0  0
    6.4972   -0.7364    0.0000 C   0  0
    6.4920    0.7636    0.0000 C   0  0
    5.1903    1.5091    0.0000 C   0  0
    3.8939    0.7546    0.0000 C   0  0
    2.5923    1.5001    0.0000 Cl  0  0
  1  2  1  0
  3  2  1  1
  3  4  1  0
  4  5  1  0
  5  6  2  0
  6  7  1  0
  7  8  1  0
  8  9  1  0
  8 10  1  0
  6 11  1  0
 11 12  1  0
 12 13  2  0
 12 14  1  0
 14  4  2  0
 14 15  1  0
  3 16  1  0
 16 17  2  0
 17 18  1  0
 17 19  1  0
 19 20  2  0
 20 21  1  0
 21 22  2  0
 22 16  1  0
 22 23  1  0
M  END
> <Smiles>
CO[C@@H](c1nc(SC(C)C)[nH]c(=O)c1C)c1c(F)cccc1Cl

> <IC50_uM>
0.002

> <pIC50>
8.698970004

> <Activity>
1

$$$$

  SciTegic10102310092D

 29 31  0  0  0  0            999 V2000
    5.1908   -4.5097    0.0000 N   0  0
    3.8933   -3.7570    0.0000 C   0  0
    2.5951   -3.0039    0.0000 C   0  0
    2.5973   -1.5031    0.0000 C   0  0
    1.2990   -0.7500    0.0000 C   0  0
    1.2990    0.7500    0.0000 C   0  0
    0.0000    1.5000    0.0000 C   0  0
    0.0000    3.0000    0.0000 Cl  0  0
   -1.2990    0.7500    0.0000 C   0  0
   -1.2990   -0.7500    0.0000 C   0  0
   -2.5972   -1.5031    0.0000 O   0  0
   -2.5951   -3.0039    0.0000 C   0  0
   -1.2935   -3.7495    0.0000 C   0  0
   -1.2883   -5.2495    0.0000 C   0  0
   -2.5847   -6.0040    0.0000 C   0  0
   -3.8863   -5.2585    0.0000 C   0  0
   -3.8915   -3.7585    0.0000 C   0  0
   -5.1954   -3.0153    0.0000 O   0  0
   -6.4915   -3.7721    0.0000 C   0  0
   -7.7954   -3.0289    0.0000 C   0  0
   -9.0914   -3.7857    0.0000 N   0  0
   -9.0811   -5.2858    0.0000 C   0  0
  -10.3749   -6.0448    0.0000 C   0  0
  -11.6791   -5.3038    0.0000 C   0  0
  -12.9729   -6.0628    0.0000 O   0  0
  -11.6895   -3.8038    0.0000 N   0  0
  -10.3957   -3.0448    0.0000 C   0  0
  -10.4062   -1.5449    0.0000 O   0  0
    0.0000   -1.5000    0.0000 C   0  0
  1  2  3  0
  2  3  1  0
  3  4  2  0
  4  5  1  0
  5  6  2  0
  6  7  1  0
  7  8  1  0
  7  9  2  0
  9 10  1  0
 10 11  1  0
 11 12  1  0
 12 13  2  0
 13 14  1  0
 14 15  2  0
 15 16  1  0
 16 17  2  0
 17 12  1  0
 17 18  1  0
 18 19  1  0
 19 20  1  0
 20 21  1  0
 21 22  1  0
 22 23  2  0
 23 24  1  0
 24 25  2  0
 24 26  1  0
 26 27  1  0
 27 21  1  0
 27 28  2  0
 10 29  2  0
 29  5  1  0
M  END
> <Smiles>
N#C/C=C/c1cc(Cl)cc(Oc2ccccc2OCCn2ccc(=O)[nH]c2=O)c1

> <IC50_uM>
0.0021

> <pIC50>
8.677780705

> <Activity>
1

$$$$

  SciTegic10102310092D

 30 32  0  0  0  0            999 V2000
    5.1908   -4.5097    0.0000 N   0  0
    3.8933   -3.7570    0.0000 C   0  0
    2.5951   -3.0039    0.0000 C   0  0
    2.5973   -1.5031    0.0000 C   0  0
    1.2990   -0.7500    0.0000 C   0  0
    1.2990    0.7500    0.0000 C   0  0
    0.0000    1.5000    0.0000 C   0  0
    0.0000    3.0000    0.0000 F   0  0
   -1.2990    0.7500    0.0000 C   0  0
   -1.2990   -0.7500    0.0000 C   0  0
   -2.5972   -1.5031    0.0000 O   0  0
   -2.5951   -3.0039    0.0000 C   0  0
   -1.2935   -3.7495    0.0000 C   0  0
   -1.2883   -5.2495    0.0000 C   0  0
   -2.5847   -6.0040    0.0000 C   0  0
   -2.5795   -7.5040    0.0000 F   0  0
   -3.8863   -5.2585    0.0000 C   0  0
   -3.8915   -3.7585    0.0000 C   0  0
   -5.1954   -3.0153    0.0000 O   0  0
   -6.4915   -3.7721    0.0000 C   0  0
   -7.7954   -3.0289    0.0000 C   0  0
   -9.0914   -3.7857    0.0000 N   0  0
   -9.0811   -5.2858    0.0000 C   0  0
  -10.3749   -6.0448    0.0000 C   0  0
  -11.6791   -5.3038    0.0000 C   0  0
  -12.9729   -6.0628    0.0000 O   0  0
  -11.6895   -3.8038    0.0000 N   0  0
  -10.3957   -3.0448    0.0000 C   0  0
  -10.4062   -1.5449    0.0000 O   0  0
    0.0000   -1.5000    0.0000 C   0  0
  1  2  3  0
  2  3  1  0
  3  4  2  0
  4  5  1  0
  5  6  2  0
  6  7  1  0
  7  8  1  0
  7  9  2  0
  9 10  1  0
 10 11  1  0
 11 12  1  0
 12 13  2  0
 13 14  1  0
 14 15  2  0
 15 16  1  0
 15 17  1  0
 17 18  2  0
 18 12  1  0
 18 19  1  0
 19 20  1  0
 20 21  1  0
 21 22  1  0
 22 23  1  0
 23 24  2  0
 24 25  1  0
 25 26  2  0
 25 27  1  0
 27 28  1  0
 28 22  1  0
 28 29  2  0
 10 30  2  0
 30  5  1  0
M  END
> <Smiles>
N#C/C=C/c1cc(F)cc(Oc2ccc(F)cc2OCCn2ccc(=O)[nH]c2=O)c1

> <IC50_uM>
0.0022

> <pIC50>
8.657577319

> <Activity>
1

$$$$

  SciTegic10102310092D

 27 30  0  0  0  0            999 V2000
   -1.3389    6.7184    0.0000 N   0  0
   -0.0347    5.9774    0.0000 C   0  0
    1.2702    5.2360    0.0000 C   0  0
    2.5640    5.9949    0.0000 C   0  0
    3.8682    5.2539    0.0000 C   0  0
    3.8787    3.7539    0.0000 C   0  0
    5.1821    3.0099    0.0000 N   0  0
    5.1903    1.5091    0.0000 C   0  0
    6.4920    0.7636    0.0000 N   0  0
    6.4972   -0.7364    0.0000 C   0  0
    5.2007   -1.4909    0.0000 C   0  0
    3.8990   -0.7455    0.0000 C   0  0
    2.6003   -1.4977    0.0000 O   0  0
    1.2990   -0.7500    0.0000 C   0  0
    1.2990    0.7500    0.0000 C   0  0
    0.0000    1.5000    0.0000 C   0  0
   -1.2990    0.7500    0.0000 C   0  0
   -2.5981    1.5000    0.0000 C   0  0
   -3.8971    0.7500    0.0000 C   0  0
   -3.8971   -0.7500    0.0000 C   0  0
   -2.5981   -1.5000    0.0000 C   0  0
   -1.2990   -0.7500    0.0000 C   0  0
    0.0000   -1.5000    0.0000 C   0  0
    0.0000   -3.0000    0.0000 Br  0  0
    3.8939    0.7546    0.0000 N   0  0
    2.5847    2.9950    0.0000 C   0  0
    1.2806    3.7360    0.0000 C   0  0
  1  2  3  0
  2  3  1  0
  3  4  2  0
  4  5  1  0
  5  6  2  0
  6  7  1  0
  7  8  1  0
  8  9  2  0
  9 10  1  0
 10 11  2  0
 11 12  1  0
 12 13  1  0
 13 14  1  0
 14 15  2  0
 15 16  1  0
 16 17  2  0
 17 18  1  0
 18 19  2  0
 19 20  1  0
 20 21  2  0
 21 22  1  0
 22 17  1  0
 22 23  2  0
 23 14  1  0
 23 24  1  0
 12 25  2  0
 25  8  1  0
  6 26  1  0
 26 27  2  0
 27  3  1  0
M  END
> <Smiles>
N#Cc1ccc(Nc2nccc(Oc3ccc4ccccc4c3Br)n2)cc1

> <IC50_uM>
0.00235

> <pIC50>
8.628932138

> <Activity>
1

$$$$

  SciTegic10102310092D

 27 29  0  0  0  0            999 V2000
    3.8983   -0.7459    0.0000 C   0  0
    2.6003   -1.4977    0.0000 C   0  0
    1.2990   -0.7500    0.0000 C   0  0
    1.2990    0.7500    0.0000 C   0  0
    0.0000    1.5000    0.0000 N   0  0
   -1.2990    0.7500    0.0000 C   0  0
   -2.6003    1.4977    0.0000 N   0  0
   -3.8990    0.7455    0.0000 C   0  0
   -5.2007    1.4909    0.0000 C   0  0
   -6.4972    0.7364    0.0000 C   0  0
   -6.4920   -0.7636    0.0000 C   0  0
   -7.7891   -1.5185    0.0000 C   0  0
   -9.0855   -2.2730    0.0000 N   0  0
   -5.1903   -1.5091    0.0000 C   0  0
   -3.8939   -0.7546    0.0000 C   0  0
   -1.2990   -0.7500    0.0000 N   0  0
    0.0000   -1.5000    0.0000 C   0  0
   -0.0031   -3.0008    0.0000 N   0  0
   -1.3039   -3.7494    0.0000 C   0  0
   -1.3092   -5.2494    0.0000 C   0  0
   -0.0128   -6.0039    0.0000 C   0  0
   -2.6108   -5.9949    0.0000 C   0  0
   -3.9072   -5.2404    0.0000 C   0  0
   -5.2089   -5.9859    0.0000 C   0  0
   -3.9020   -3.7404    0.0000 C   0  0
   -2.6004   -2.9949    0.0000 C   0  0
   -2.5953   -1.4949    0.0000 C   0  0
  1  2  2  0
  2  3  1  0
  3  4  2  0
  4  5  1  0
  5  6  2  0
  6  7  1  0
  7  8  1  0
  8  9  2  0
  9 10  1  0
 10 11  2  0
 11 12  1  0
 12 13  3  0
 11 14  1  0
 14 15  2  0
 15  8  1  0
  6 16  1  0
 16 17  2  0
 17  3  1  0
 17 18  1  0
 18 19  1  0
 19 20  2  0
 20 21  1  0
 20 22  1  0
 22 23  2  0
 23 24  1  0
 23 25  1  0
 25 26  2  0
 26 19  1  0
 26 27  1  0
M  END
> <Smiles>
C=Cc1cnc(Nc2ccc(C#N)cc2)nc1Nc1c(C)cc(C)cc1C

> <IC50_uM>
0.0025

> <pIC50>
8.602059991

> <Activity>
1

$$$$

  SciTegic10102310092D

 36 38  0  0  0  0            999 V2000
    2.5981   -1.5000    0.0000 C   0  0
    1.2990   -0.7500    0.0000 C   0  0
    1.2990    0.7500    0.0000 C   0  0
    0.0000    1.5000    0.0000 C   0  0
   -0.0031    3.0008    0.0000 C   0  0
   -1.3039    3.7494    0.0000 C   0  0
   -1.3070    5.2502    0.0000 C   0  0
   -1.3101    6.7502    0.0000 N   0  0
   -1.2990    0.7500    0.0000 C   0  0
   -1.2990   -0.7500    0.0000 C   0  0
   -2.5981   -1.5000    0.0000 C   0  0
    0.0000   -1.5000    0.0000 C   0  0
    0.0031   -3.0008    0.0000 O   0  0
    1.3039   -3.7494    0.0000 C   0  0
    2.6005   -2.9949    0.0000 C   0  0
    3.9021   -3.7404    0.0000 C   0  0
    5.1977   -2.9829    0.0000 N   0  0
    5.1904   -1.4821    0.0000 C   0  0
    6.4842   -0.7230    0.0000 C   0  0
    6.4738    0.7770    0.0000 C   0  0
    5.1696    1.5180    0.0000 C   0  0
    5.1592    3.0188    0.0000 C   0  0
    5.1488    4.5187    0.0000 N   0  0
    3.8758    0.7590    0.0000 C   0  0
    3.8861   -0.7410    0.0000 C   0  0
    3.9073   -5.2404    0.0000 C   0  0
    5.2089   -5.9859    0.0000 N   0  0
    2.6108   -5.9949    0.0000 C   0  0
    1.3092   -5.2494    0.0000 C   0  0
    0.0136   -6.0070    0.0000 C   0  0
   -1.2893   -5.2638    0.0000 O   0  0
    0.0210   -7.5078    0.0000 O   0  0
   -1.2746   -8.2655    0.0000 C   0  0
   -1.2672   -9.7663    0.0000 C   0  0
   -2.5628  -10.5239    0.0000 C   0  0
   -3.8576  -11.2811    0.0000 N   0  0
  1  2  1  0
  2  3  2  0
  3  4  1  0
  4  5  1  0
  5  6  2  0
  6  7  1  0
  7  8  3  0
  4  9  2  0
  9 10  1  0
 10 11  1  0
 10 12  2  0
 12  2  1  0
 12 13  1  0
 13 14  1  0
 14 15  2  0
 15 16  1  0
 16 17  1  0
 17 18  1  0
 18 19  2  0
 19 20  1  0
 20 21  2  0
 21 22  1  0
 22 23  3  0
 21 24  1  0
 24 25  2  0
 25 18  1  0
 16 26  2  0
 26 27  1  0
 26 28  1  0
 28 29  2  0
 29 14  1  0
 29 30  1  0
 30 31  2  0
 30 32  1  0
 32 33  1  0
 33 34  1  0
 34 35  1  0
 35 36  3  0
M  END
> <Smiles>
Cc1cc(/C=C/C#N)cc(C)c1Oc1cc(Nc2ccc(C#N)cc2)c(N)cc1C(=O)OCCC#N

> <IC50_uM>
0.00294

> <pIC50>
8.53165267

> <Activity>
1

$$$$

  SciTegic10102310092D

 39 43  0  0  0  0            999 V2000
    2.5923    1.5001    0.0000 C   0  0
    3.8939    0.7546    0.0000 C   0  0
    5.1903    1.5091    0.0000 C   0  0
    6.4920    0.7636    0.0000 C   0  0
    7.7907    1.5158    0.0000 C   0  0
    9.0920    0.7680    0.0000 C   0  0
   10.3907    1.5203    0.0000 C   0  0
   11.6886    2.2721    0.0000 N   0  0
    6.4972   -0.7364    0.0000 C   0  0
    5.2007   -1.4909    0.0000 C   0  0
    5.2059   -2.9909    0.0000 C   0  0
    3.8990   -0.7455    0.0000 C   0  0
    2.6003   -1.4977    0.0000 O   0  0
    1.2990   -0.7500    0.0000 C   0  0
    1.2990    0.7500    0.0000 N   0  0
    0.0000    1.5000    0.0000 C   0  0
   -0.0031    3.0008    0.0000 N   0  0
   -1.3039    3.7494    0.0000 C   0  0
   -1.3092    5.2494    0.0000 C   0  0
   -2.6108    5.9949    0.0000 C   0  0
   -3.9073    5.2404    0.0000 N   0  0
   -5.2112    5.9836    0.0000 C   0  0
   -6.5072    5.2269    0.0000 C   0  0
   -7.8115    5.9678    0.0000 C   0  0
   -9.1053    5.2088    0.0000 C   0  0
   -9.0949    3.7089    0.0000 C   0  0
  -10.3879    2.9468    0.0000 C   0  0
  -11.6934    3.6855    0.0000 N   0  0
  -10.3754    1.4469    0.0000 O   0  0
   -7.7907    2.9679    0.0000 C   0  0
   -6.4969    3.7269    0.0000 C   0  0
   -3.9021    3.7404    0.0000 C   0  0
   -2.6005    2.9949    0.0000 C   0  0
   -1.2990    0.7500    0.0000 N   0  0
   -1.2990   -0.7500    0.0000 C   0  0
   -2.4133   -1.7530    0.0000 C   0  0
   -1.8032   -3.1233    0.0000 C   0  0
   -0.3114   -2.9665    0.0000 S   0  0
    0.0000   -1.5000    0.0000 C   0  0
  1  2  1  0
  2  3  2  0
  3  4  1  0
  4  5  1  0
  5  6  2  0
  6  7  1  0
  7  8  3  0
  4  9  2  0
  9 10  1  0
 10 11  1  0
 10 12  2  0
 12  2  1  0
 12 13  1  0
 13 14  1  0
 14 15  2  0
 15 16  1  0
 16 17  1  0
 17 18  1  0
 18 19  1  0
 19 20  1  0
 20 21  1  0
 21 22  1  0
 22 23  1  0
 23 24  2  0
 24 25  1  0
 25 26  2  0
 26 27  1  0
 27 28  1  0
 27 29  2  0
 26 30  1  0
 30 31  2  0
 31 23  1  0
 21 32  1  0
 32 33  1  0
 33 18  1  0
 16 34  2  0
 34 35  1  0
 35 36  1  0
 36 37  2  0
 37 38  1  0
 38 39  1  0
 39 14  1  0
 39 35  2  0
M  END
> <Smiles>
Cc1cc(/C=C/C#N)cc(C)c1Oc1nc(NC2CCN(Cc3ccc(C(N)=O)cc3)CC2)nc2ccsc12

> <IC50_uM>
0.00297

> <pIC50>
8.527243551

> <Activity>
1

$$$$

  SciTegic10102310092D

 28 30  0  0  0  0            999 V2000
    2.5981   -1.5000    0.0000 C   0  0
    1.2990   -0.7500    0.0000 C   0  0
    1.2990    0.7500    0.0000 N   0  0
    0.0000    1.5000    0.0000 C   0  0
    0.0000    3.0000    0.0000 O   0  0
   -1.2990    0.7500    0.0000 C   0  0
   -2.5981    1.5000    0.0000 Cl  0  0
   -1.2990   -0.7500    0.0000 C   0  0
   -2.5972   -1.5031    0.0000 O   0  0
   -2.5951   -3.0039    0.0000 C   0  0
   -3.8915   -3.7585    0.0000 C   0  0
   -3.8863   -5.2585    0.0000 C   0  0
   -5.1828   -6.0130    0.0000 Cl  0  0
   -2.5847   -6.0040    0.0000 C   0  0
   -1.2883   -5.2495    0.0000 C   0  0
    0.0141   -5.9954    0.0000 C   0  0
    1.3157   -6.7409    0.0000 N   0  0
   -1.2935   -3.7495    0.0000 C   0  0
    0.0000   -1.5000    0.0000 C   0  0
    0.0031   -3.0008    0.0000 C   0  0
    1.3039   -3.7494    0.0000 C   0  0
    1.3070   -5.2502    0.0000 C   0  0
    2.6078   -5.9988    0.0000 C   0  0
    2.6131   -7.4988    0.0000 C   0  0
    3.9147   -8.2443    0.0000 C   0  0
    5.2112   -7.4898    0.0000 N   0  0
    5.2060   -5.9898    0.0000 C   0  0
    3.9044   -5.2443    0.0000 C   0  0
  1  2  1  0
  2  3  1  0
  3  4  1  0
  4  5  2  0
  4  6  1  0
  6  7  1  0
  6  8  2  0
  8  9  1  0
  9 10  1  0
 10 11  2  0
 11 12  1  0
 12 13  1  0
 12 14  2  0
 14 15  1  0
 15 16  1  0
 16 17  3  0
 15 18  2  0
 18 10  1  0
  8 19  1  0
 19  2  2  0
 19 20  1  0
 20 21  1  0
 21 22  1  0
 22 23  1  0
 23 24  2  0
 24 25  1  0
 25 26  2  0
 26 27  1  0
 27 28  2  0
 28 23  1  0
M  END
> <Smiles>
Cc1[nH]c(=O)c(Cl)c(Oc2cc(Cl)cc(C#N)c2)c1CCCc1ccncc1

> <IC50_uM>
0.003

> <pIC50>
8.522878745

> <Activity>
1

$$$$

  SciTegic10102310092D

 29 31  0  0  0  0            999 V2000
    2.5981   -1.5000    0.0000 C   0  0
    1.2990   -0.7500    0.0000 C   0  0
    1.2990    0.7500    0.0000 C   0  0
    0.0000    1.5000    0.0000 C   0  0
   -1.2990    0.7500    0.0000 C   0  0
   -1.2990   -0.7500    0.0000 C   0  0
    0.0000   -1.5000    0.0000 C   0  0
   -2.5981   -1.5000    0.0000 C   0  0
   -3.8971   -0.7500    0.0000 C   0  0
   -3.8971    0.7500    0.0000 C   0  0
   -2.5981    1.5000    0.0000 N   0  0
   -2.6012    3.0008    0.0000 C   0  0
   -1.3035    3.7531    0.0000 O   0  0
   -3.9020    3.7494    0.0000 S   0  0
   -3.9051    5.2502    0.0000 C   0  0
   -5.2059    5.9988    0.0000 C   0  0
   -6.5036    5.2465    0.0000 O   0  0
   -5.2090    7.4996    0.0000 N   0  0
   -6.5098    8.2481    0.0000 C   0  0
   -7.8064    7.4937    0.0000 C   0  0
   -9.1080    8.2392    0.0000 C   0  0
   -9.1132    9.7392    0.0000 C   0  0
  -10.4155   10.4851    0.0000 S   0  0
  -10.4202   11.9851    0.0000 N   0  0
  -11.7124    9.7314    0.0000 O   0  0
  -11.7168   11.2312    0.0000 O   0  0
   -7.8167   10.4936    0.0000 C   0  0
   -6.5151    9.7481    0.0000 C   0  0
   -5.2187   10.5027    0.0000 Cl  0  0
  1  2  1  0
  2  3  2  0
  3  4  1  0
  4  5  2  0
  5  6  1  0
  6  7  2  0
  7  2  1  0
  6  8  1  0
  8  9  1  0
  9 10  1  0
 10 11  1  0
 11  5  1  0
 11 12  1  0
 12 13  2  0
 12 14  1  0
 14 15  1  0
 15 16  1  0
 16 17  2  0
 16 18  1  0
 18 19  1  0
 19 20  2  0
 20 21  1  0
 21 22  2  0
 22 23  1  0
 23 24  1  0
 23 25  2  0
 23 26  2  0
 22 27  1  0
 27 28  2  0
 28 19  1  0
 28 29  1  0
M  END
> <Smiles>
Cc1ccc2c(c1)CCCN2C(=O)SCC(=O)Nc1ccc(S(N)(=O)=O)cc1Cl

> <IC50_uM>
0.003

> <pIC50>
8.522878745

> <Activity>
1

$$$$

  SciTegic10102310092D

 25 27  0  0  0  0            999 V2000
    3.1676   -7.5606    0.0000 C   0  0
    1.7006   -7.2475    0.0000 C   0  0
    0.6960   -8.3614    0.0000 C   0  0
   -0.7710   -8.0483    0.0000 C   0  0
   -1.7756   -9.1622    0.0000 C   0  0
   -1.2333   -6.6213    0.0000 C   0  0
   -0.2287   -5.5075    0.0000 C   0  0
   -0.6913   -4.0797    0.0000 S   0  0
   -2.1584   -3.7671    0.0000 O   0  0
   -1.6957   -5.1937    0.0000 O   0  0
    0.3114   -2.9665    0.0000 C   0  0
    1.8032   -3.1233    0.0000 C   0  0
    2.5551   -4.4192    0.0000 C   0  0
    1.8074   -5.7196    0.0000 N   0  0
    4.0551   -4.4171    0.0000 O   0  0
    2.4133   -1.7530    0.0000 N   0  0
    1.2990   -0.7500    0.0000 C   0  0
    1.2990    0.7500    0.0000 C   0  0
    0.0000    1.5000    0.0000 C   0  0
   -1.2990    0.7500    0.0000 C   0  0
   -2.5981    1.5000    0.0000 Cl  0  0
   -1.2990   -0.7500    0.0000 C   0  0
   -2.5981   -1.5000    0.0000 F   0  0
    0.0000   -1.5000    0.0000 C   0  0
    1.2383   -5.8206    0.0000 C   0  0
  1  2  1  0
  2  3  2  0
  3  4  1  0
  4  5  1  0
  4  6  2  0
  6  7  1  0
  7  8  1  0
  8  9  2  0
  8 10  2  0
  8 11  1  0
 11 12  2  0
 12 13  1  0
 13 14  1  0
 13 15  2  0
 12 16  1  0
 16 17  1  0
 17 18  2  0
 18 19  1  0
 19 20  2  0
 20 21  1  0
 20 22  1  0
 22 23  1  0
 22 24  2  0
 24 11  1  0
 24 17  1  0
  7 25  2  0
 25  2  1  0
M  END
> <Smiles>
Cc1cc(C)cc(S(=O)(=O)c2c(C(N)=O)[nH]c3ccc(Cl)c(F)c23)c1

> <IC50_uM>
0.003

> <pIC50>
8.522878745

> <Activity>
1

$$$$

  SciTegic10102310092D

 31 33  0  0  0  0            999 V2000
    3.1676   -7.5606    0.0000 C   0  0
    1.7006   -7.2475    0.0000 C   0  0
    0.6960   -8.3614    0.0000 C   0  0
   -0.7710   -8.0483    0.0000 C   0  0
   -1.7756   -9.1622    0.0000 C   0  0
   -1.2333   -6.6213    0.0000 C   0  0
   -0.2287   -5.5075    0.0000 C   0  0
   -0.6913   -4.0797    0.0000 S   0  0
   -2.1584   -3.7671    0.0000 O   0  0
   -1.6957   -5.1937    0.0000 O   0  0
    0.3114   -2.9665    0.0000 C   0  0
    1.8032   -3.1233    0.0000 C   0  0
    2.5551   -4.4192    0.0000 C   0  0
    1.8074   -5.7196    0.0000 O   0  0
    4.0559   -4.4171    0.0000 N   0  0
    4.8090   -5.7153    0.0000 C   0  0  3  0  0  0
    4.0613   -7.0156    0.0000 C   0  0
    6.3098   -5.7131    0.0000 C   0  0
    7.0629   -7.0113    0.0000 S   0  0
    6.3152   -8.3116    0.0000 N   0  0
    8.5629   -7.0091    0.0000 O   0  0
    7.8150   -8.3091    0.0000 O   0  0
    2.4133   -1.7530    0.0000 N   0  0
    1.2990   -0.7500    0.0000 C   0  0
    1.2990    0.7500    0.0000 C   0  0
    0.0000    1.5000    0.0000 C   0  0
   -1.2990    0.7500    0.0000 C   0  0
   -2.5981    1.5000    0.0000 Br  0  0
   -1.2990   -0.7500    0.0000 C   0  0
    0.0000   -1.5000    0.0000 C   0  0
    1.2383   -5.8206    0.0000 C   0  0
  1  2  1  0
  2  3  2  0
  3  4  1  0
  4  5  1  0
  4  6  2  0
  6  7  1  0
  7  8  1  0
  8  9  2  0
  8 10  2  0
  8 11  1  0
 11 12  2  0
 12 13  1  0
 13 14  2  0
 13 15  1  0
 15 16  1  0
 16 17  1  4
 16 18  1  0
 18 19  1  0
 19 20  1  0
 19 21  2  0
 19 22  2  0
 12 23  1  0
 23 24  1  0
 24 25  2  0
 25 26  1  0
 26 27  2  0
 27 28  1  0
 27 29  1  0
 29 30  2  0
 30 11  1  0
 30 24  1  0
  7 31  2  0
 31  2  1  0
M  END
> <Smiles>
Cc1cc(C)cc(S(=O)(=O)c2c(C(=O)NC(C)CS(N)(=O)=O)[nH]c3ccc(Br)cc23)c1

> <IC50_uM>
0.003

> <pIC50>
8.522878745

> <Activity>
1

$$$$

  SciTegic10102310092D

 28 31  0  0  0  0            999 V2000
   -6.0840   -4.2660    0.0000 N   0  0
   -5.6208   -5.6927    0.0000 C   0  0
   -5.1572   -7.1201    0.0000 C   0  0
   -6.1611   -8.2347    0.0000 C   0  0
   -5.6979   -9.6613    0.0000 C   0  0
   -6.7018  -10.7759    0.0000 Cl  0  0
   -4.2307   -9.9735    0.0000 C   0  0
   -3.2267   -8.8590    0.0000 C   0  0
   -1.7581   -9.1683    0.0000 O   0  0
   -0.7552   -8.0517    0.0000 C   0  0
    0.7130   -8.3588    0.0000 C   0  0
    1.1812   -9.7838    0.0000 Br  0  0
    1.7131   -7.2408    0.0000 C   0  0
    1.2449   -5.8157    0.0000 C   0  0
   -0.2234   -5.5086    0.0000 C   0  0
   -0.6890   -4.0818    0.0000 C   0  0
    0.3114   -2.9665    0.0000 C   0  0
    1.8032   -3.1233    0.0000 N   0  0
    2.4133   -1.7530    0.0000 N   0  0
    1.2990   -0.7500    0.0000 C   0  0
    1.2990    0.7500    0.0000 N   0  0
    0.0000    1.5000    0.0000 N   0  0
   -1.2990    0.7500    0.0000 C   0  0
   -1.2990   -0.7500    0.0000 C   0  0
    0.0000   -1.5000    0.0000 C   0  0
   -1.2234   -6.6267    0.0000 C   0  0
   -2.6917   -6.3197    0.0000 F   0  0
   -3.6901   -7.4323    0.0000 C   0  0
  1  2  3  0
  2  3  1  0
  3  4  2  0
  4  5  1  0
  5  6  1  0
  5  7  2  0
  7  8  1  0
  8  9  1  0
  9 10  1  0
 10 11  2  0
 11 12  1  0
 11 13  1  0
 13 14  2  0
 14 15  1  0
 15 16  1  0
 16 17  1  0
 17 18  2  0
 18 19  1  0
 19 20  1  0
 20 21  2  0
 21 22  1  0
 22 23  2  0
 23 24  1  0
 24 25  2  0
 25 17  1  0
 25 20  1  0
 15 26  2  0
 26 10  1  0
 26 27  1  0
  8 28  2  0
 28  3  1  0
M  END
> <Smiles>
N#Cc1cc(Cl)cc(Oc2c(Br)ccc(Cc3n[nH]c4nnccc34)c2F)c1

> <IC50_uM>
0.003

> <pIC50>
8.522878745

> <Activity>
1

$$$$

  SciTegic10102310092D

 32 35  0  0  0  0            999 V2000
    2.5981   -1.5000    0.0000 C   0  0
    1.2990   -0.7500    0.0000 C   0  0
    1.2990    0.7500    0.0000 C   0  0
    0.0000    1.5000    0.0000 C   0  0
    0.0000    3.0008    0.0000 C   0  0
    0.0000    4.5017    0.0000 C   0  0
    0.0000    6.0025    0.0000 C   0  0
   -1.2991    6.7525    0.0000 C   0  0
   -1.2991    8.2525    0.0000 C   0  0
    0.0000    9.0025    0.0000 C   0  0
    1.2990    8.2525    0.0000 N   0  0
    1.2990    6.7525    0.0000 C   0  0
   -1.2990    0.7500    0.0000 C   0  0
   -1.2990   -0.7500    0.0000 C   0  0
   -2.5981   -1.5000    0.0000 C   0  0
    0.0000   -1.5000    0.0000 C   0  0
    0.0031   -3.0008    0.0000 O   0  0
    1.3039   -3.7494    0.0000 C   0  0
    1.3092   -5.2494    0.0000 C   0  0
    2.6108   -5.9949    0.0000 C   0  0
    3.9073   -5.2404    0.0000 N   0  0
    3.9021   -3.7404    0.0000 C   0  0
    5.1977   -2.9829    0.0000 N   0  0
    5.1903   -1.4820    0.0000 C   0  0
    6.4841   -0.7230    0.0000 C   0  0
    6.4738    0.7770    0.0000 C   0  0
    5.1696    1.5180    0.0000 C   0  0
    5.1592    3.0188    0.0000 C   0  0
    5.1488    4.5187    0.0000 N   0  0
    3.8757    0.7590    0.0000 C   0  0
    3.8861   -0.7410    0.0000 C   0  0
    2.6004   -2.9949    0.0000 N   0  0
  1  2  1  0
  2  3  2  0
  3  4  1  0
  4  5  1  0
  5  6  3  0
  6  7  1  0
  7  8  2  0
  8  9  1  0
  9 10  2  0
 10 11  1  0
 11 12  2  0
 12  7  1  0
  4 13  2  0
 13 14  1  0
 14 15  1  0
 14 16  2  0
 16  2  1  0
 16 17  1  0
 17 18  1  0
 18 19  2  0
 19 20  1  0
 20 21  2  0
 21 22  1  0
 22 23  1  0
 23 24  1  0
 24 25  2  0
 25 26  1  0
 26 27  2  0
 27 28  1  0
 28 29  3  0
 27 30  1  0
 30 31  2  0
 31 24  1  0
 22 32  2  0
 32 18  1  0
M  END
> <Smiles>
Cc1cc(C#Cc2cccnc2)cc(C)c1Oc1ccnc(Nc2ccc(C#N)cc2)n1

> <IC50_uM>
0.003

> <pIC50>
8.522878745

> <Activity>
1

$$$$

  SciTegic10102310092D

 24 25  0  0  0  0            999 V2000
    3.8912   -5.2570    0.0000 C   0  0
    3.8933   -3.7570    0.0000 C   0  0
    2.5951   -3.0039    0.0000 C   0  0  3  0  0  0
    1.2948   -3.7516    0.0000 C   0  0
    2.5973   -1.5031    0.0000 S   0  0
    1.2990   -0.7500    0.0000 C   0  0
    1.2990    0.7500    0.0000 N   0  0
    0.0000    1.5000    0.0000 C   0  0
    0.0031    3.0008    0.0000 C   0  0  3  0  0  0
   -1.2938    3.7562    0.0000 O   0  0
   -1.2891    5.2562    0.0000 C   0  0
    1.3039    3.7494    0.0000 C   0  0
    1.3092    5.2494    0.0000 C   0  0
    0.0127    6.0039    0.0000 F   0  0
    2.6108    5.9949    0.0000 C   0  0
    3.9072    5.2405    0.0000 C   0  0
    3.9020    3.7405    0.0000 C   0  0
    2.6004    2.9949    0.0000 C   0  0
    2.5953    1.4950    0.0000 F   0  0
   -1.2990    0.7500    0.0000 C   0  0
   -2.5981    1.5000    0.0000 C   0  0
   -1.2990   -0.7500    0.0000 C   0  0
   -2.5981   -1.5000    0.0000 O   0  0
    0.0000   -1.5000    0.0000 N   0  0
  1  2  1  0
  2  3  1  0
  3  4  1  4
  3  5  1  0
  5  6  1  0
  6  7  2  0
  7  8  1  0
  8  9  1  0
  9 10  1  4
 10 11  1  0
  9 12  1  0
 12 13  2  0
 13 14  1  0
 13 15  1  0
 15 16  2  0
 16 17  1  0
 17 18  2  0
 18 12  1  0
 18 19  1  0
  8 20  2  0
 20 21  1  0
 20 22  1  0
 22 23  2  0
 22 24  1  0
 24  6  1  0
M  END
> <Smiles>
CCC(C)Sc1nc(C(OC)c2c(F)cccc2F)c(C)c(=O)[nH]1

> <IC50_uM>
0.003

> <pIC50>
8.522878745

> <Activity>
1

$$$$

  SciTegic10102310092D

 29 31  0  0  0  0            999 V2000
    2.5981   -1.5000    0.0000 C   0  0
    1.2990   -0.7500    0.0000 C   0  0
    1.2990    0.7500    0.0000 C   0  0
    0.0000    1.5000    0.0000 C   0  0
    0.0000    3.0008    0.0000 C   0  0
    0.0000    4.5017    0.0000 C   0  0
    0.0000    6.0025    0.0000 C   0  0
    1.2992    6.7537    0.0000 C   0  0
    1.2992    8.2537    0.0000 O   0  0
   -1.2990    0.7500    0.0000 C   0  0
   -1.2990   -0.7500    0.0000 C   0  0
   -2.5981   -1.5000    0.0000 C   0  0
    0.0000   -1.5000    0.0000 C   0  0
    0.0031   -3.0008    0.0000 O   0  0
    1.3039   -3.7494    0.0000 C   0  0
    1.3092   -5.2494    0.0000 C   0  0
    2.6108   -5.9949    0.0000 C   0  0
    3.9073   -5.2404    0.0000 N   0  0
    3.9021   -3.7404    0.0000 C   0  0
    5.1977   -2.9829    0.0000 N   0  0
    5.1903   -1.4820    0.0000 C   0  0
    6.4841   -0.7230    0.0000 C   0  0
    6.4738    0.7770    0.0000 C   0  0
    5.1696    1.5180    0.0000 C   0  0
    5.1592    3.0188    0.0000 C   0  0
    5.1488    4.5187    0.0000 N   0  0
    3.8757    0.7590    0.0000 C   0  0
    3.8861   -0.7410    0.0000 C   0  0
    2.6004   -2.9949    0.0000 N   0  0
  1  2  1  0
  2  3  2  0
  3  4  1  0
  4  5  1  0
  5  6  3  0
  6  7  1  0
  7  8  1  0
  8  9  1  0
  4 10  2  0
 10 11  1  0
 11 12  1  0
 11 13  2  0
 13  2  1  0
 13 14  1  0
 14 15  1  0
 15 16  2  0
 16 17  1  0
 17 18  2  0
 18 19  1  0
 19 20  1  0
 20 21  1  0
 21 22  2  0
 22 23  1  0
 23 24  2  0
 24 25  1  0
 25 26  3  0
 24 27  1  0
 27 28  2  0
 28 21  1  0
 19 29  2  0
 29 15  1  0
M  END
> <Smiles>
Cc1cc(C#CCCO)cc(C)c1Oc1ccnc(Nc2ccc(C#N)cc2)n1

> <IC50_uM>
0.003

> <pIC50>
8.522878745

> <Activity>
1

$$$$

  SciTegic10102310092D

 24 25  0  0  0  0            999 V2000
    3.8983   -0.7566    0.0000 C   0  0
    2.5973   -1.5031    0.0000 C   0  0
    1.2990   -0.7500    0.0000 C   0  0
    1.2990    0.7500    0.0000 C   0  0
    2.5981    1.5000    0.0000 C   0  0
    0.0000    1.5000    0.0000 N   0  0
   -1.2990    0.7500    0.0000 C   0  0
   -2.5981    1.5000    0.0000 O   0  0
   -1.2990   -0.7500    0.0000 C   0  0
   -2.5972   -1.5031    0.0000 N   0  0
   -3.8976   -0.7554    0.0000 C   0  0
   -2.5951   -3.0039    0.0000 C   0  0
   -3.8933   -3.7570    0.0000 C   0  0
   -3.8912   -5.2578    0.0000 C   0  0
   -5.1887   -6.0105    0.0000 O   0  0
    0.0000   -1.5000    0.0000 C   0  0
    0.0031   -3.0008    0.0000 C   0  0
    1.3039   -3.7494    0.0000 C   0  0
    1.3092   -5.2494    0.0000 C   0  0
    2.6108   -5.9949    0.0000 C   0  0
    3.9073   -5.2404    0.0000 C   0  0
    3.9021   -3.7404    0.0000 C   0  0
    5.1985   -2.9859    0.0000 C   0  0
    2.6004   -2.9949    0.0000 C   0  0
  1  2  1  0
  2  3  1  0
  3  4  2  0
  4  5  1  0
  4  6  1  0
  6  7  1  0
  7  8  2  0
  7  9  1  0
  9 10  1  0
 10 11  1  0
 10 12  1  0
 12 13  1  0
 13 14  1  0
 14 15  1  0
  9 16  2  0
 16  3  1  0
 16 17  1  0
 17 18  1  0
 18 19  2  0
 19 20  1  0
 20 21  2  0
 21 22  1  0
 22 23  1  0
 22 24  2  0
 24 18  1  0
M  END
> <Smiles>
CCc1c(C)[nH]c(=O)c(N(C)CCCO)c1Cc1cccc(C)c1

> <IC50_uM>
0.003

> <pIC50>
8.522878745

> <Activity>
1

$$$$

  SciTegic10102310092D

 34 36  0  0  0  0            999 V2000
    2.5981   -1.5000    0.0000 C   0  0
    1.2990   -0.7500    0.0000 C   0  0
    1.2990    0.7500    0.0000 N   0  0
    0.0000    1.5000    0.0000 C   0  0
    0.0000    3.0008    0.0000 S   0  0
   -1.2993    3.7504    0.0000 N   0  0
    1.2985    3.7517    0.0000 O   0  0
   -0.0007    4.5008    0.0000 O   0  0
   -1.2990    0.7500    0.0000 C   0  0
   -1.2990   -0.7500    0.0000 C   0  0
    0.0000   -1.5000    0.0000 C   0  0
   -0.0031   -3.0008    0.0000 N   0  0
   -1.3039   -3.7494    0.0000 C   0  0
   -2.6016   -2.9971    0.0000 O   0  0
   -1.3070   -5.2502    0.0000 C   0  0
   -2.6078   -5.9988    0.0000 O   0  0
   -2.6109   -7.4996    0.0000 C   0  0
   -1.3118   -8.2497    0.0000 C   0  0
   -1.3119   -9.7497    0.0000 C   0  0
   -2.6109  -10.4997    0.0000 C   0  0
   -2.6110  -11.9997    0.0000 Cl  0  0
   -3.9100   -9.7497    0.0000 C   0  0
   -3.9099   -8.2497    0.0000 C   0  0
   -5.2112   -7.5019    0.0000 C   0  0
   -5.2139   -6.0019    0.0000 O   0  0
   -6.5099   -8.2542    0.0000 C   0  0
   -7.8116   -7.5088    0.0000 C   0  0
   -9.1080   -8.2633    0.0000 C   0  0
  -10.4097   -7.5178    0.0000 Cl  0  0
   -9.1028   -9.7633    0.0000 C   0  0
   -7.8012  -10.5088    0.0000 C   0  0
   -7.7960  -12.0096    0.0000 C   0  0
   -7.7908  -13.5096    0.0000 N   0  0
   -6.5048   -9.7543    0.0000 C   0  0
  1  2  1  0
  2  3  2  0
  3  4  1  0
  4  5  1  0
  5  6  1  0
  5  7  2  0
  5  8  2  0
  4  9  2  0
  9 10  1  0
 10 11  2  0
 11  2  1  0
 11 12  1  0
 12 13  1  0
 13 14  2  0
 13 15  1  0
 15 16  1  0
 16 17  1  0
 17 18  2  0
 18 19  1  0
 19 20  2  0
 20 21  1  0
 20 22  1  0
 22 23  2  0
 23 17  1  0
 23 24  1  0
 24 25  2  0
 24 26  1  0
 26 27  2  0
 27 28  1  0
 28 29  1  0
 28 30  2  0
 30 31  1  0
 31 32  1  0
 32 33  3  0
 31 34  2  0
 34 26  1  0
M  END
> <Smiles>
Cc1nc(S(N)(=O)=O)ccc1NC(=O)COc1ccc(Cl)cc1C(=O)c1cc(Cl)cc(C#N)c1

> <IC50_uM>
0.00302

> <pIC50>
8.519993057

> <Activity>
1

$$$$

  SciTegic10102310092D

 38 42  0  0  0  0            999 V2000
    2.5923    1.5001    0.0000 C   0  0
    3.8939    0.7546    0.0000 C   0  0
    5.1903    1.5091    0.0000 C   0  0
    6.4920    0.7636    0.0000 C   0  0
    7.7891    1.5185    0.0000 C   0  0
    9.0856    2.2729    0.0000 N   0  0
    6.4972   -0.7364    0.0000 C   0  0
    5.2007   -1.4909    0.0000 C   0  0
    5.2059   -2.9909    0.0000 C   0  0
    3.8990   -0.7455    0.0000 C   0  0
    2.6003   -1.4977    0.0000 O   0  0
    1.2990   -0.7500    0.0000 C   0  0
    1.2990    0.7500    0.0000 N   0  0
    0.0000    1.5000    0.0000 C   0  0
   -0.0031    3.0008    0.0000 N   0  0
   -1.3039    3.7494    0.0000 C   0  0
   -1.3092    5.2494    0.0000 C   0  0
   -2.6108    5.9949    0.0000 C   0  0
   -3.9073    5.2404    0.0000 N   0  0
   -5.2112    5.9836    0.0000 C   0  0
   -6.5072    5.2269    0.0000 C   0  0
   -7.8115    5.9678    0.0000 C   0  0
   -9.1053    5.2088    0.0000 C   0  0
   -9.0949    3.7089    0.0000 C   0  0
  -10.3895    2.9495    0.0000 S   0  0
  -10.3786    1.4495    0.0000 N   0  0
  -11.6941    3.6896    0.0000 O   0  0
  -11.6829    2.1899    0.0000 O   0  0
   -7.7907    2.9679    0.0000 C   0  0
   -6.4969    3.7269    0.0000 C   0  0
   -3.9021    3.7404    0.0000 C   0  0
   -2.6005    2.9949    0.0000 C   0  0
   -1.2990    0.7500    0.0000 N   0  0
   -1.2990   -0.7500    0.0000 C   0  0
   -2.4133   -1.7530    0.0000 C   0  0
   -1.8032   -3.1233    0.0000 C   0  0
   -0.3114   -2.9665    0.0000 S   0  0
    0.0000   -1.5000    0.0000 C   0  0
  1  2  1  0
  2  3  2  0
  3  4  1  0
  4  5  1  0
  5  6  3  0
  4  7  2  0
  7  8  1  0
  8  9  1  0
  8 10  2  0
 10  2  1  0
 10 11  1  0
 11 12  1  0
 12 13  2  0
 13 14  1  0
 14 15  1  0
 15 16  1  0
 16 17  1  0
 17 18  1  0
 18 19  1  0
 19 20  1  0
 20 21  1  0
 21 22  2  0
 22 23  1  0
 23 24  2  0
 24 25  1  0
 25 26  1  0
 25 27  2  0
 25 28  2  0
 24 29  1  0
 29 30  2  0
 30 21  1  0
 19 31  1  0
 31 32  1  0
 32 16  1  0
 14 33  2  0
 33 34  1  0
 34 35  1  0
 35 36  2  0
 36 37  1  0
 37 38  1  0
 38 12  1  0
 38 34  2  0
M  END
> <Smiles>
Cc1cc(C#N)cc(C)c1Oc1nc(NC2CCN(Cc3ccc(S(N)(=O)=O)cc3)CC2)nc2ccsc12

> <IC50_uM>
0.00325

> <pIC50>
8.488116639

> <Activity>
1

$$$$

  SciTegic10102310092D

 33 35  0  0  0  0            999 V2000
    2.5981   -1.5000    0.0000 C   0  0
    1.2990   -0.7500    0.0000 C   0  0
    1.2990    0.7500    0.0000 C   0  0
    0.0000    1.5000    0.0000 C   0  0
    0.0000    3.0000    0.0000 C   0  0
   -1.2990    0.7500    0.0000 C   0  0
   -1.2990   -0.7500    0.0000 C   0  0
   -2.5972   -1.5031    0.0000 C   0  0
   -3.8976   -0.7554    0.0000 O   0  0
   -2.5951   -3.0039    0.0000 C   0  0
   -1.2935   -3.7495    0.0000 C   0  0
   -1.2883   -5.2495    0.0000 C   0  0
    0.0134   -5.9950    0.0000 Cl  0  0
   -2.5847   -6.0040    0.0000 C   0  0
   -3.8863   -5.2585    0.0000 C   0  0
   -3.8915   -3.7585    0.0000 C   0  0
   -5.1954   -3.0153    0.0000 O   0  0
   -6.4915   -3.7721    0.0000 C   0  0
   -7.7954   -3.0289    0.0000 C   0  0
   -7.8032   -1.5289    0.0000 O   0  0
   -9.0914   -3.7857    0.0000 N   0  0
  -10.3953   -3.0425    0.0000 C   0  0
  -10.4007   -1.5425    0.0000 C   0  0
  -11.7023   -0.7971    0.0000 C   0  0
  -12.9987   -1.5516    0.0000 C   0  0
  -14.3011   -0.8058    0.0000 S   0  0
  -15.5973   -1.5608    0.0000 N   0  0
  -14.3073    0.6942    0.0000 O   0  0
  -15.6031   -0.0610    0.0000 O   0  0
  -12.9934   -3.0516    0.0000 C   0  0
  -11.6918   -3.7970    0.0000 C   0  0
  -11.6865   -5.2970    0.0000 C   0  0
    0.0000   -1.5000    0.0000 C   0  0
  1  2  1  0
  2  3  2  0
  3  4  1  0
  4  5  1  0
  4  6  2  0
  6  7  1  0
  7  8  1  0
  8  9  2  0
  8 10  1  0
 10 11  2  0
 11 12  1  0
 12 13  1  0
 12 14  2  0
 14 15  1  0
 15 16  2  0
 16 10  1  0
 16 17  1  0
 17 18  1  0
 18 19  1  0
 19 20  2  0
 19 21  1  0
 21 22  1  0
 22 23  2  0
 23 24  1  0
 24 25  2  0
 25 26  1  0
 26 27  1  0
 26 28  2  0
 26 29  2  0
 25 30  1  0
 30 31  2  0
 31 22  1  0
 31 32  1  0
  7 33  2  0
 33  2  1  0
M  END
> <Smiles>
Cc1cc(C)cc(C(=O)c2cc(Cl)ccc2OCC(=O)Nc2ccc(S(N)(=O)=O)cc2C)c1

> <IC50_uM>
0.003311

> <pIC50>
8.480040819

> <Activity>
1

$$$$

  SciTegic10102310092D

 33 35  0  0  0  0            999 V2000
    3.8978   -2.2504    0.0000 N   0  0
    2.5988   -1.5004    0.0000 C   0  0
    1.2990   -0.7500    0.0000 C   0  0
    1.2990    0.7500    0.0000 C   0  0
    0.0000    1.5000    0.0000 C   0  0
    0.0000    3.0000    0.0000 Cl  0  0
   -1.2990    0.7500    0.0000 C   0  0
   -1.2990   -0.7500    0.0000 C   0  0
   -2.5972   -1.5031    0.0000 O   0  0
   -2.5951   -3.0039    0.0000 C   0  0
   -3.8915   -3.7585    0.0000 C   0  0
   -3.8863   -5.2585    0.0000 C   0  0
   -5.1828   -6.0130    0.0000 Cl  0  0
   -2.5847   -6.0040    0.0000 C   0  0
   -1.2883   -5.2495    0.0000 C   0  0
    0.0156   -5.9927    0.0000 O   0  0
    1.3117   -5.2360    0.0000 C   0  0
    2.6156   -5.9792    0.0000 C   0  0
    2.6234   -7.4792    0.0000 O   0  0
    3.9116   -5.2225    0.0000 N   0  0
    5.2155   -5.9657    0.0000 C   0  0
    5.2208   -7.4658    0.0000 C   0  0
    6.5225   -8.2112    0.0000 C   0  0
    7.8189   -7.4567    0.0000 C   0  0
    9.1212   -8.2026    0.0000 S   0  0
   10.4174   -7.4476    0.0000 N   0  0
    9.1274   -9.7025    0.0000 O   0  0
   10.4232   -8.9474    0.0000 O   0  0
    7.8136   -5.9567    0.0000 C   0  0
    6.5120   -5.2112    0.0000 C   0  0
    6.5068   -3.7112    0.0000 Cl  0  0
   -1.2935   -3.7495    0.0000 C   0  0
    0.0000   -1.5000    0.0000 C   0  0
  1  2  3  0
  2  3  1  0
  3  4  2  0
  4  5  1  0
  5  6  1  0
  5  7  2  0
  7  8  1  0
  8  9  1  0
  9 10  1  0
 10 11  2  0
 11 12  1  0
 12 13  1  0
 12 14  2  0
 14 15  1  0
 15 16  1  0
 16 17  1  0
 17 18  1  0
 18 19  2  0
 18 20  1  0
 20 21  1  0
 21 22  2  0
 22 23  1  0
 23 24  2  0
 24 25  1  0
 25 26  1  0
 25 27  2  0
 25 28  2  0
 24 29  1  0
 29 30  2  0
 30 21  1  0
 30 31  1  0
 15 32  2  0
 32 10  1  0
  8 33  2  0
 33  3  1  0
M  END
> <Smiles>
N#Cc1cc(Cl)cc(Oc2cc(Cl)cc(OCC(=O)Nc3ccc(S(N)(=O)=O)cc3Cl)c2)c1

> <IC50_uM>
0.00348

> <pIC50>
8.458420756

> <Activity>
1

$$$$

  SciTegic10102310092D

 33 35  0  0  0  0            999 V2000
    2.5981   -1.5000    0.0000 C   0  0
    1.2990   -0.7500    0.0000 C   0  0
    1.2990    0.7500    0.0000 C   0  0
    0.0000    1.5000    0.0000 C   0  0
    0.0000    3.0000    0.0000 Cl  0  0
   -1.2990    0.7500    0.0000 C   0  0
   -1.2990   -0.7500    0.0000 C   0  0
   -2.5972   -1.5031    0.0000 C   0  0
   -3.8976   -0.7554    0.0000 O   0  0
   -2.5951   -3.0039    0.0000 C   0  0
   -1.2935   -3.7495    0.0000 C   0  0
   -1.2883   -5.2495    0.0000 C   0  0
    0.0134   -5.9950    0.0000 Cl  0  0
   -2.5847   -6.0040    0.0000 C   0  0
   -3.8863   -5.2585    0.0000 C   0  0
   -3.8915   -3.7585    0.0000 C   0  0
   -5.1954   -3.0153    0.0000 O   0  0
   -6.4915   -3.7721    0.0000 C   0  0
   -7.7954   -3.0289    0.0000 C   0  0
   -7.8032   -1.5289    0.0000 O   0  0
   -9.0914   -3.7857    0.0000 N   0  0
  -10.3953   -3.0425    0.0000 C   0  0
  -10.4007   -1.5425    0.0000 C   0  0
  -11.7023   -0.7971    0.0000 C   0  0
  -12.9987   -1.5516    0.0000 C   0  0
  -14.3011   -0.8058    0.0000 S   0  0
  -15.5973   -1.5608    0.0000 N   0  0
  -14.3073    0.6942    0.0000 O   0  0
  -15.6031   -0.0610    0.0000 O   0  0
  -12.9934   -3.0516    0.0000 C   0  0
  -11.6918   -3.7970    0.0000 C   0  0
  -11.6865   -5.2970    0.0000 C   0  0
    0.0000   -1.5000    0.0000 C   0  0
  1  2  1  0
  2  3  2  0
  3  4  1  0
  4  5  1  0
  4  6  2  0
  6  7  1  0
  7  8  1  0
  8  9  2  0
  8 10  1  0
 10 11  2  0
 11 12  1  0
 12 13  1  0
 12 14  2  0
 14 15  1  0
 15 16  2  0
 16 10  1  0
 16 17  1  0
 17 18  1  0
 18 19  1  0
 19 20  2  0
 19 21  1  0
 21 22  1  0
 22 23  2  0
 23 24  1  0
 24 25  2  0
 25 26  1  0
 26 27  1  0
 26 28  2  0
 26 29  2  0
 25 30  1  0
 30 31  2  0
 31 22  1  0
 31 32  1  0
  7 33  2  0
 33  2  1  0
M  END
> <Smiles>
Cc1cc(Cl)cc(C(=O)c2cc(Cl)ccc2OCC(=O)Nc2ccc(S(N)(=O)=O)cc2C)c1

> <IC50_uM>
0.003631

> <pIC50>
8.439973751

> <Activity>
1

$$$$

  SciTegic10102310092D

 28 31  0  0  0  0            999 V2000
    4.6376   -7.8561    0.0000 N   0  0
    3.6376   -8.9741    0.0000 C   0  0
    2.6370  -10.0928    0.0000 C   0  0
    3.1053  -11.5178    0.0000 C   0  0
    2.1052  -12.6358    0.0000 C   0  0
    2.5735  -14.0609    0.0000 Cl  0  0
    0.6370  -12.3288    0.0000 C   0  0
    0.1687  -10.9038    0.0000 C   0  0
   -1.2997  -10.5936    0.0000 O   0  0
   -1.7662   -9.1671    0.0000 C   0  0
   -0.7624   -8.0525    0.0000 C   0  0
   -1.2256   -6.6258    0.0000 C   0  0
   -0.2234   -5.5086    0.0000 O   0  0
   -0.6890   -4.0818    0.0000 C   0  0
    0.3114   -2.9665    0.0000 C   0  0
    1.8032   -3.1233    0.0000 N   0  0
    2.4133   -1.7530    0.0000 N   0  0
    1.2990   -0.7500    0.0000 C   0  0
    1.2990    0.7500    0.0000 C   0  0
    0.0000    1.5000    0.0000 C   0  0
   -1.2990    0.7500    0.0000 N   0  0
   -1.2990   -0.7500    0.0000 C   0  0
    0.0000   -1.5000    0.0000 C   0  0
   -2.6928   -6.3138    0.0000 C   0  0
   -3.6967   -7.4283    0.0000 C   0  0
   -3.2334   -8.8550    0.0000 C   0  0
   -4.2373   -9.9695    0.0000 Cl  0  0
    1.1688   -9.7857    0.0000 C   0  0
  1  2  3  0
  2  3  1  0
  3  4  2  0
  4  5  1  0
  5  6  1  0
  5  7  2  0
  7  8  1  0
  8  9  1  0
  9 10  1  0
 10 11  2  0
 11 12  1  0
 12 13  1  0
 13 14  1  0
 14 15  1  0
 15 16  2  0
 16 17  1  0
 17 18  1  0
 18 19  2  0
 19 20  1  0
 20 21  2  0
 21 22  1  0
 22 23  2  0
 23 15  1  0
 23 18  1  0
 12 24  2  0
 24 25  1  0
 25 26  2  0
 26 10  1  0
 26 27  1  0
  8 28  2  0
 28  3  1  0
M  END
> <Smiles>
N#Cc1cc(Cl)cc(Oc2cc(OCc3n[nH]c4ccncc34)ccc2Cl)c1

> <IC50_uM>
0.0038

> <pIC50>
8.420216403

> <Activity>
1

$$$$

  SciTegic10102310092D

 40 42  0  0  0  0            999 V2000
    2.5981   -1.5000    0.0000 C   0  0
    1.2990   -0.7500    0.0000 C   0  0
    1.2990    0.7500    0.0000 C   0  0
    0.0000    1.5000    0.0000 C   0  0
   -0.0031    3.0008    0.0000 O   0  0
   -1.3039    3.7494    0.0000 C   0  0
   -1.3070    5.2502    0.0000 C   0  0
   -2.6078    5.9988    0.0000 C   0  0
   -2.6109    7.4996    0.0000 S   0  0
   -1.3132    8.2519    0.0000 N   0  0
   -3.9111    8.2477    0.0000 O   0  0
   -2.6133    8.9996    0.0000 O   0  0
   -1.2990    0.7500    0.0000 C   0  0
   -1.2990   -0.7500    0.0000 C   0  0
    0.0000   -1.5000    0.0000 C   0  0
   -0.0031   -3.0008    0.0000 N   0  0
   -1.3039   -3.7494    0.0000 C   0  0
   -2.6016   -2.9971    0.0000 O   0  0
   -1.3070   -5.2502    0.0000 C   0  0
   -2.6078   -5.9988    0.0000 O   0  0
   -2.6109   -7.4996    0.0000 C   0  0
   -1.3118   -8.2497    0.0000 C   0  0
   -1.3119   -9.7497    0.0000 C   0  0
   -2.6109  -10.4997    0.0000 C   0  0
   -2.6110  -11.9997    0.0000 Cl  0  0
   -3.9100   -9.7497    0.0000 C   0  0
   -3.9099   -8.2497    0.0000 C   0  0
   -5.2112   -7.5019    0.0000 C   0  0
   -5.2139   -6.0019    0.0000 O   0  0
   -6.5099   -8.2542    0.0000 C   0  0
   -7.8116   -7.5088    0.0000 C   0  0
   -9.1080   -8.2633    0.0000 C   0  0
  -10.4097   -7.5178    0.0000 F   0  0
   -9.1028   -9.7633    0.0000 C   0  0
   -7.8012  -10.5088    0.0000 C   0  0
   -7.7960  -12.0096    0.0000 C   0  0
   -9.0919  -12.7649    0.0000 F   0  0
   -6.4941  -12.7547    0.0000 F   0  0
   -7.7901  -13.5096    0.0000 F   0  0
   -6.5048   -9.7543    0.0000 C   0  0
  1  2  1  0
  2  3  2  0
  3  4  1  0
  4  5  1  0
  5  6  1  0
  6  7  1  0
  7  8  1  0
  8  9  1  0
  9 10  1  0
  9 11  2  0
  9 12  2  0
  4 13  2  0
 13 14  1  0
 14 15  2  0
 15  2  1  0
 15 16  1  0
 16 17  1  0
 17 18  2  0
 17 19  1  0
 19 20  1  0
 20 21  1  0
 21 22  2  0
 22 23  1  0
 23 24  2  0
 24 25  1  0
 24 26  1  0
 26 27  2  0
 27 21  1  0
 27 28  1  0
 28 29  2  0
 28 30  1  0
 30 31  2  0
 31 32  1  0
 32 33  1  0
 32 34  2  0
 34 35  1  0
 35 36  1  0
 36 37  1  0
 36 38  1  0
 36 39  1  0
 35 40  2  0
 40 30  1  0
M  END
> <Smiles>
Cc1cc(OCCCS(N)(=O)=O)ccc1NC(=O)COc1ccc(Cl)cc1C(=O)c1cc(F)cc(C(F)(F)F)c1

> <IC50_uM>
0.003981

> <pIC50>
8.400007822

> <Activity>
1

$$$$

  SciTegic10102310092D

 40 42  0  0  0  0            999 V2000
    2.5981   -1.5000    0.0000 C   0  0
    1.2990   -0.7500    0.0000 C   0  0
    1.2990    0.7500    0.0000 C   0  0
    0.0000    1.5000    0.0000 C   0  0
   -0.0031    3.0008    0.0000 O   0  0
   -1.3039    3.7494    0.0000 C   0  0
   -1.3070    5.2502    0.0000 C   0  0
   -2.6078    5.9988    0.0000 C   0  0
   -2.6109    7.4996    0.0000 N   0  0
   -3.9118    8.2481    0.0000 C   0  0
   -5.2095    7.4959    0.0000 N   0  0
   -3.9149    9.7481    0.0000 O   0  0
   -1.2990    0.7500    0.0000 C   0  0
   -1.2990   -0.7500    0.0000 C   0  0
    0.0000   -1.5000    0.0000 C   0  0
   -0.0031   -3.0008    0.0000 N   0  0
   -1.3039   -3.7494    0.0000 C   0  0
   -2.6016   -2.9971    0.0000 O   0  0
   -1.3070   -5.2502    0.0000 C   0  0
   -2.6078   -5.9988    0.0000 O   0  0
   -2.6109   -7.4996    0.0000 C   0  0
   -1.3118   -8.2497    0.0000 C   0  0
   -1.3119   -9.7497    0.0000 C   0  0
   -2.6109  -10.4997    0.0000 C   0  0
   -2.6110  -11.9997    0.0000 Cl  0  0
   -3.9100   -9.7497    0.0000 C   0  0
   -3.9099   -8.2497    0.0000 C   0  0
   -5.2112   -7.5019    0.0000 C   0  0
   -5.2139   -6.0019    0.0000 O   0  0
   -6.5099   -8.2542    0.0000 C   0  0
   -7.8116   -7.5088    0.0000 C   0  0
   -9.1080   -8.2633    0.0000 C   0  0
  -10.4097   -7.5178    0.0000 F   0  0
   -9.1028   -9.7633    0.0000 C   0  0
   -7.8012  -10.5088    0.0000 C   0  0
   -7.7960  -12.0096    0.0000 C   0  0
   -9.0919  -12.7649    0.0000 F   0  0
   -6.4941  -12.7547    0.0000 F   0  0
   -7.7901  -13.5096    0.0000 F   0  0
   -6.5048   -9.7543    0.0000 C   0  0
  1  2  1  0
  2  3  2  0
  3  4  1  0
  4  5  1  0
  5  6  1  0
  6  7  1  0
  7  8  1  0
  8  9  1  0
  9 10  1  0
 10 11  1  0
 10 12  2  0
  4 13  2  0
 13 14  1  0
 14 15  2  0
 15  2  1  0
 15 16  1  0
 16 17  1  0
 17 18  2  0
 17 19  1  0
 19 20  1  0
 20 21  1  0
 21 22  2  0
 22 23  1  0
 23 24  2  0
 24 25  1  0
 24 26  1  0
 26 27  2  0
 27 21  1  0
 27 28  1  0
 28 29  2  0
 28 30  1  0
 30 31  2  0
 31 32  1  0
 32 33  1  0
 32 34  2  0
 34 35  1  0
 35 36  1  0
 36 37  1  0
 36 38  1  0
 36 39  1  0
 35 40  2  0
 40 30  1  0
M  END
> <Smiles>
Cc1cc(OCCCNC(N)=O)ccc1NC(=O)COc1ccc(Cl)cc1C(=O)c1cc(F)cc(C(F)(F)F)c1

> <IC50_uM>
0.003981

> <pIC50>
8.400007822

> <Activity>
1

$$$$

  SciTegic10102310092D

 26 28  0  0  0  0            999 V2000
    6.4964    0.7591    0.0000 O   0  0
    6.4990   -0.7409    0.0000 C   0  0
    5.2003   -1.4932    0.0000 C   0  0
    3.8990   -0.7455    0.0000 S   0  0
    2.6003   -1.4977    0.0000 C   0  0
    2.6030   -2.9977    0.0000 O   0  0
    1.2990   -0.7500    0.0000 N   0  0
    1.2990    0.7500    0.0000 C   0  0
    0.0000    1.5000    0.0000 C   0  0
   -1.2990    0.7500    0.0000 C   0  0
   -1.2990   -0.7500    0.0000 C   0  0
   -2.5981   -1.5000    0.0000 C   0  0
   -2.5981   -3.0000    0.0000 C   0  0
   -3.8971   -3.7500    0.0000 Cl  0  0
   -1.2990   -3.7500    0.0000 C   0  0
    0.0000   -3.0000    0.0000 C   0  0
    1.2991   -3.7500    0.0000 Cl  0  0
    0.0000   -1.5000    0.0000 C   0  0
    7.8003   -1.4887    0.0000 N   0  0
    9.0990   -0.7364    0.0000 C   0  0
    9.0939    0.7637    0.0000 C   0  0
   10.3903    1.5181    0.0000 C   0  0
   11.6919    0.7726    0.0000 C   0  0
   11.6971   -0.7274    0.0000 C   0  0
   10.4007   -1.4818    0.0000 C   0  0
   10.4059   -2.9818    0.0000 Cl  0  0
  1  2  2  0
  2  3  1  0
  3  4  1  0
  4  5  1  0
  5  6  2  0
  5  7  1  0
  7  8  1  0
  8  9  1  0
  9 10  1  0
 10 11  1  0
 11 12  2  0
 12 13  1  0
 13 14  1  0
 13 15  2  0
 15 16  1  0
 16 17  1  0
 16 18  2  0
 18 11  1  0
 18  7  1  0
  2 19  1  0
 19 20  1  0
 20 21  2  0
 21 22  1  0
 22 23  2  0
 23 24  1  0
 24 25  2  0
 25 20  1  0
 25 26  1  0
M  END
> <Smiles>
O=C(CSC(=O)N1CCCc2cc(Cl)cc(Cl)c21)Nc1ccccc1Cl

> <IC50_uM>
0.004

> <pIC50>
8.397940009

> <Activity>
1

$$$$

  SciTegic10102310092D

 30 32  0  0  0  0            999 V2000
   14.2905    0.7816    0.0000 N   0  0
   12.9891    1.5275    0.0000 S   0  0
   12.9848    3.0275    0.0000 O   0  0
   14.2859    2.2814    0.0000 O   0  0
   11.6919    0.7726    0.0000 C   0  0
   10.3903    1.5181    0.0000 C   0  0
    9.0939    0.7636    0.0000 C   0  0
    9.0990   -0.7364    0.0000 C   0  0
    7.8003   -1.4887    0.0000 N   0  0
    6.4990   -0.7409    0.0000 C   0  0
    6.4964    0.7591    0.0000 O   0  0
    5.2003   -1.4932    0.0000 C   0  0
    3.8990   -0.7455    0.0000 S   0  0
    2.6003   -1.4977    0.0000 C   0  0
    2.6030   -2.9977    0.0000 O   0  0
    1.2990   -0.7500    0.0000 N   0  0
    1.2990    0.7500    0.0000 C   0  0
    0.0000    1.5000    0.0000 C   0  0
   -1.2990    0.7500    0.0000 C   0  0
   -1.2990   -0.7500    0.0000 C   0  0
   -2.5981   -1.5000    0.0000 C   0  0
   -2.5981   -3.0000    0.0000 C   0  0
   -3.8971   -3.7500    0.0000 Cl  0  0
   -1.2990   -3.7500    0.0000 C   0  0
    0.0000   -3.0000    0.0000 C   0  0
    1.2991   -3.7500    0.0000 Cl  0  0
    0.0000   -1.5000    0.0000 C   0  0
   10.4007   -1.4818    0.0000 C   0  0
   10.4059   -2.9818    0.0000 Cl  0  0
   11.6971   -0.7274    0.0000 C   0  0
  1  2  1  0
  2  3  2  0
  2  4  2  0
  2  5  1  0
  5  6  2  0
  6  7  1  0
  7  8  2  0
  8  9  1  0
  9 10  1  0
 10 11  2  0
 10 12  1  0
 12 13  1  0
 13 14  1  0
 14 15  2  0
 14 16  1  0
 16 17  1  0
 17 18  1  0
 18 19  1  0
 19 20  1  0
 20 21  2  0
 21 22  1  0
 22 23  1  0
 22 24  2  0
 24 25  1  0
 25 26  1  0
 25 27  2  0
 27 20  1  0
 27 16  1  0
  8 28  1  0
 28 29  1  0
 28 30  2  0
 30  5  1  0
M  END
> <Smiles>
NS(=O)(=O)c1ccc(NC(=O)CSC(=O)N2CCCc3cc(Cl)cc(Cl)c32)c(Cl)c1

> <IC50_uM>
0.004

> <pIC50>
8.397940009

> <Activity>
1

$$$$

  SciTegic10102310092D

 36 39  0  0  0  0            999 V2000
    6.4964    0.7591    0.0000 O   0  0
    6.4990   -0.7409    0.0000 C   0  0
    5.2003   -1.4932    0.0000 C   0  0
    3.8990   -0.7455    0.0000 S   0  0
    2.6003   -1.4977    0.0000 C   0  0
    2.6030   -2.9977    0.0000 O   0  0
    1.2990   -0.7500    0.0000 N   0  0
    1.2990    0.7500    0.0000 C   0  0
    0.0000    1.5000    0.0000 C   0  0
   -1.2990    0.7500    0.0000 C   0  0
   -1.2990   -0.7500    0.0000 C   0  0
   -2.5981   -1.5000    0.0000 C   0  0
   -2.5981   -3.0000    0.0000 C   0  0
   -3.8971   -3.7500    0.0000 Cl  0  0
   -1.2990   -3.7500    0.0000 C   0  0
    0.0000   -3.0000    0.0000 C   0  0
    1.2991   -3.7500    0.0000 Cl  0  0
    0.0000   -1.5000    0.0000 C   0  0
    7.8003   -1.4887    0.0000 N   0  0
    9.0990   -0.7364    0.0000 C   0  0
    9.0939    0.7637    0.0000 C   0  0
   10.3903    1.5181    0.0000 C   0  0
   11.6919    0.7726    0.0000 C   0  0
   12.9906    1.5249    0.0000 C   0  0
   12.9881    3.0249    0.0000 O   0  0
   14.2919    0.7771    0.0000 N   0  0
   15.5906    1.5293    0.0000 C   0  0
   16.8919    0.7816    0.0000 C   0  0
   18.1910    1.5315    0.0000 C   0  0
   19.4900    0.7815    0.0000 C   0  0
   19.4900   -0.7185    0.0000 C   0  0
   18.1910   -1.4685    0.0000 C   0  0
   16.8919   -0.7185    0.0000 C   0  0
   11.6971   -0.7274    0.0000 C   0  0
   10.4007   -1.4818    0.0000 C   0  0
   10.4059   -2.9818    0.0000 Cl  0  0
  1  2  2  0
  2  3  1  0
  3  4  1  0
  4  5  1  0
  5  6  2  0
  5  7  1  0
  7  8  1  0
  8  9  1  0
  9 10  1  0
 10 11  1  0
 11 12  2  0
 12 13  1  0
 13 14  1  0
 13 15  2  0
 15 16  1  0
 16 17  1  0
 16 18  2  0
 18 11  1  0
 18  7  1  0
  2 19  1  0
 19 20  1  0
 20 21  2  0
 21 22  1  0
 22 23  2  0
 23 24  1  0
 24 25  2  0
 24 26  1  0
 26 27  1  0
 27 28  1  0
 28 29  2  0
 29 30  1  0
 30 31  2  0
 31 32  1  0
 32 33  2  0
 33 28  1  0
 23 34  1  0
 34 35  2  0
 35 20  1  0
 35 36  1  0
M  END
> <Smiles>
O=C(CSC(=O)N1CCCc2cc(Cl)cc(Cl)c21)Nc1ccc(C(=O)NCc2ccccc2)cc1Cl

> <IC50_uM>
0.004

> <pIC50>
8.397940009

> <Activity>
1

$$$$

  SciTegic10102310092D

 31 33  0  0  0  0            999 V2000
    3.1676   -7.5606    0.0000 C   0  0
    1.7006   -7.2475    0.0000 C   0  0
    0.6960   -8.3614    0.0000 C   0  0
   -0.7710   -8.0483    0.0000 C   0  0
   -1.7756   -9.1622    0.0000 C   0  0
   -1.2333   -6.6213    0.0000 C   0  0
   -0.2287   -5.5075    0.0000 C   0  0
   -0.6913   -4.0797    0.0000 S   0  0
   -2.1584   -3.7671    0.0000 O   0  0
   -1.6957   -5.1937    0.0000 O   0  0
    0.3114   -2.9665    0.0000 C   0  0
    1.8032   -3.1233    0.0000 C   0  0
    2.5551   -4.4192    0.0000 C   0  0
    1.8074   -5.7196    0.0000 O   0  0
    4.0559   -4.4171    0.0000 N   0  0
    4.8090   -5.7153    0.0000 C   0  0  3  0  0  0
    4.0613   -7.0156    0.0000 C   0  0
    6.3098   -5.7131    0.0000 C   0  0
    7.0629   -7.0113    0.0000 S   0  0
    6.3152   -8.3116    0.0000 N   0  0
    8.5629   -7.0091    0.0000 O   0  0
    7.8150   -8.3091    0.0000 O   0  0
    2.4133   -1.7530    0.0000 N   0  0
    1.2990   -0.7500    0.0000 C   0  0
    1.2990    0.7500    0.0000 C   0  0
    0.0000    1.5000    0.0000 C   0  0
   -1.2990    0.7500    0.0000 C   0  0
   -2.5981    1.5000    0.0000 Cl  0  0
   -1.2990   -0.7500    0.0000 C   0  0
    0.0000   -1.5000    0.0000 C   0  0
    1.2383   -5.8206    0.0000 C   0  0
  1  2  1  0
  2  3  2  0
  3  4  1  0
  4  5  1  0
  4  6  2  0
  6  7  1  0
  7  8  1  0
  8  9  2  0
  8 10  2  0
  8 11  1  0
 11 12  2  0
 12 13  1  0
 13 14  2  0
 13 15  1  0
 15 16  1  0
 16 17  1  4
 16 18  1  0
 18 19  1  0
 19 20  1  0
 19 21  2  0
 19 22  2  0
 12 23  1  0
 23 24  1  0
 24 25  2  0
 25 26  1  0
 26 27  2  0
 27 28  1  0
 27 29  1  0
 29 30  2  0
 30 11  1  0
 30 24  1  0
  7 31  2  0
 31  2  1  0
M  END
> <Smiles>
Cc1cc(C)cc(S(=O)(=O)c2c(C(=O)NC(C)CS(N)(=O)=O)[nH]c3ccc(Cl)cc23)c1

> <IC50_uM>
0.004

> <pIC50>
8.397940009

> <Activity>
1

$$$$

  SciTegic10102310092D

 23 24  0  0  0  0            999 V2000
    3.8983   -0.7566    0.0000 C   0  0
    2.5973   -1.5031    0.0000 C   0  0
    1.2990   -0.7500    0.0000 C   0  0
    1.2990    0.7500    0.0000 C   0  0
    2.5981    1.5000    0.0000 C   0  0
    0.0000    1.5000    0.0000 N   0  0
   -1.2990    0.7500    0.0000 C   0  0
   -2.5981    1.5000    0.0000 O   0  0
   -1.2990   -0.7500    0.0000 C   0  0
   -2.5972   -1.5031    0.0000 N   0  0
   -3.8976   -0.7554    0.0000 C   0  0
   -2.5951   -3.0039    0.0000 C   0  0
   -3.8933   -3.7570    0.0000 C   0  0
   -5.1908   -4.5097    0.0000 N   0  0
    0.0000   -1.5000    0.0000 C   0  0
    0.0031   -3.0008    0.0000 C   0  0
    1.3039   -3.7494    0.0000 C   0  0
    1.3092   -5.2494    0.0000 C   0  0
    2.6108   -5.9949    0.0000 C   0  0
    3.9073   -5.2404    0.0000 C   0  0
    3.9021   -3.7404    0.0000 C   0  0
    5.1985   -2.9859    0.0000 C   0  0
    2.6004   -2.9949    0.0000 C   0  0
  1  2  1  0
  2  3  1  0
  3  4  2  0
  4  5  1  0
  4  6  1  0
  6  7  1  0
  7  8  2  0
  7  9  1  0
  9 10  1  0
 10 11  1  0
 10 12  1  0
 12 13  1  0
 13 14  3  0
  9 15  2  0
 15  3  1  0
 15 16  1  0
 16 17  1  0
 17 18  2  0
 18 19  1  0
 19 20  2  0
 20 21  1  0
 21 22  1  0
 21 23  2  0
 23 17  1  0
M  END
> <Smiles>
CCc1c(C)[nH]c(=O)c(N(C)CC#N)c1Cc1cccc(C)c1

> <IC50_uM>
0.004

> <pIC50>
8.397940009

> <Activity>
1

$$$$

  SciTegic10102310092D

 29 32  0  0  0  0            999 V2000
   -3.4458   -7.0055    0.0000 N   0  0
   -2.7003   -8.3072    0.0000 C   0  0
   -1.9545   -9.6096    0.0000 C   0  0
   -2.7090  -10.9060    0.0000 C   0  0
   -1.9635  -12.2076    0.0000 C   0  0
   -2.7181  -13.5040    0.0000 Cl  0  0
   -0.4635  -12.2129    0.0000 C   0  0
    0.2911  -10.9165    0.0000 C   0  0
    1.7919  -10.9187    0.0000 O   0  0
    2.5450   -9.6205    0.0000 C   0  0
    1.7951   -8.3214    0.0000 C   0  0
    2.5451   -7.0223    0.0000 C   0  0
    1.7974   -5.7210    0.0000 C   0  0
    2.5497   -4.4224    0.0000 C   0  0
    1.8032   -3.1233    0.0000 C   0  0
    2.4133   -1.7530    0.0000 N   0  0
    1.2990   -0.7500    0.0000 C   0  0
    1.2990    0.7500    0.0000 C   0  0
    0.0000    1.5000    0.0000 C   0  0
   -1.2990    0.7500    0.0000 C   0  0
   -1.2990   -0.7500    0.0000 C   0  0
    0.0000   -1.5000    0.0000 C   0  0
    0.3114   -2.9665    0.0000 O   0  0
    4.0452   -7.0225    0.0000 N   0  0
    4.7951   -8.3215    0.0000 C   0  0
    6.2951   -8.3216    0.0000 O   0  0
    4.0450   -9.6205    0.0000 C   0  0
    4.7950  -10.9196    0.0000 Cl  0  0
   -0.4545   -9.6148    0.0000 C   0  0
  1  2  3  0
  2  3  1  0
  3  4  2  0
  4  5  1  0
  5  6  1  0
  5  7  2  0
  7  8  1  0
  8  9  1  0
  9 10  1  0
 10 11  1  0
 11 12  2  0
 12 13  1  0
 13 14  1  0
 14 15  1  0
 15 16  2  0
 16 17  1  0
 17 18  2  0
 18 19  1  0
 19 20  2  0
 20 21  1  0
 21 22  2  0
 22 17  1  0
 22 23  1  0
 23 15  1  0
 12 24  1  0
 24 25  1  0
 25 26  2  0
 25 27  1  0
 27 10  2  0
 27 28  1  0
  8 29  2  0
 29  3  1  0
M  END
> <Smiles>
N#Cc1cc(Cl)cc(Oc2cc(CCc3nc4ccccc4o3)[nH]c(=O)c2Cl)c1

> <IC50_uM>
0.004

> <pIC50>
8.397940009

> <Activity>
1

$$$$

  SciTegic10102310092D

 27 28  0  0  0  0            999 V2000
    3.8983   -0.7566    0.0000 C   0  0
    2.5973   -1.5031    0.0000 C   0  0
    1.2990   -0.7500    0.0000 C   0  0
    1.2990    0.7500    0.0000 C   0  0
    2.5981    1.5000    0.0000 C   0  0
    0.0000    1.5000    0.0000 N   0  0
   -1.2990    0.7500    0.0000 C   0  0
   -2.5981    1.5000    0.0000 O   0  0
   -1.2990   -0.7500    0.0000 C   0  0
   -2.5972   -1.5031    0.0000 N   0  0
   -3.8976   -0.7554    0.0000 C   0  0
   -2.5951   -3.0039    0.0000 C   0  0
   -3.8933   -3.7570    0.0000 C   0  0
   -3.8912   -5.2578    0.0000 C   0  0
   -5.1894   -6.0109    0.0000 C   0  0
   -5.1872   -7.5117    0.0000 C   0  0
   -6.4847   -8.2644    0.0000 O   0  0
    0.0000   -1.5000    0.0000 C   0  0
    0.0031   -3.0008    0.0000 C   0  0
    1.3039   -3.7494    0.0000 C   0  0
    1.3092   -5.2494    0.0000 C   0  0
    2.6108   -5.9949    0.0000 C   0  0
    2.6160   -7.4949    0.0000 C   0  0
    3.9073   -5.2404    0.0000 C   0  0
    3.9021   -3.7404    0.0000 C   0  0
    5.1985   -2.9859    0.0000 C   0  0
    2.6004   -2.9949    0.0000 C   0  0
  1  2  1  0
  2  3  1  0
  3  4  2  0
  4  5  1  0
  4  6  1  0
  6  7  1  0
  7  8  2  0
  7  9  1  0
  9 10  1  0
 10 11  1  0
 10 12  1  0
 12 13  1  0
 13 14  1  0
 14 15  1  0
 15 16  1  0
 16 17  1  0
  9 18  2  0
 18  3  1  0
 18 19  1  0
 19 20  1  0
 20 21  2  0
 21 22  1  0
 22 23  1  0
 22 24  2  0
 24 25  1  0
 25 26  1  0
 25 27  2  0
 27 20  1  0
M  END
> <Smiles>
CCc1c(C)[nH]c(=O)c(N(C)CCCCCO)c1Cc1cc(C)cc(C)c1

> <IC50_uM>
0.004

> <pIC50>
8.397940009

> <Activity>
1

$$$$

  SciTegic10102310092D

 38 42  0  0  0  0            999 V2000
    2.5923    1.5001    0.0000 C   0  0
    3.8939    0.7546    0.0000 C   0  0
    5.1903    1.5091    0.0000 C   0  0
    6.4920    0.7636    0.0000 C   0  0
    7.7891    1.5185    0.0000 C   0  0
    9.0856    2.2729    0.0000 N   0  0
    6.4972   -0.7364    0.0000 C   0  0
    5.2007   -1.4909    0.0000 C   0  0
    5.2059   -2.9909    0.0000 C   0  0
    3.8990   -0.7455    0.0000 C   0  0
    2.6003   -1.4977    0.0000 O   0  0
    1.2990   -0.7500    0.0000 C   0  0
    1.2990    0.7500    0.0000 N   0  0
    0.0000    1.5000    0.0000 C   0  0
   -0.0031    3.0008    0.0000 N   0  0
   -1.3039    3.7494    0.0000 C   0  0
   -1.3092    5.2494    0.0000 C   0  0
   -2.6108    5.9949    0.0000 C   0  0
   -3.9073    5.2404    0.0000 N   0  0
   -5.2112    5.9836    0.0000 C   0  0
   -6.5072    5.2269    0.0000 C   0  0
   -7.8115    5.9678    0.0000 C   0  0
   -9.1053    5.2088    0.0000 C   0  0
   -9.0949    3.7089    0.0000 C   0  0
  -10.3895    2.9495    0.0000 S   0  0
  -10.3786    1.4495    0.0000 N   0  0
  -11.6941    3.6896    0.0000 O   0  0
  -11.6829    2.1899    0.0000 O   0  0
   -7.7907    2.9679    0.0000 C   0  0
   -6.4969    3.7269    0.0000 C   0  0
   -3.9021    3.7404    0.0000 C   0  0
   -2.6005    2.9949    0.0000 C   0  0
   -1.2990    0.7500    0.0000 N   0  0
   -1.2990   -0.7500    0.0000 C   0  0
   -2.4133   -1.7530    0.0000 C   0  0
   -1.8032   -3.1233    0.0000 C   0  0
   -0.3114   -2.9665    0.0000 N   0  0
    0.0000   -1.5000    0.0000 C   0  0
  1  2  1  0
  2  3  2  0
  3  4  1  0
  4  5  1  0
  5  6  3  0
  4  7  2  0
  7  8  1  0
  8  9  1  0
  8 10  2  0
 10  2  1  0
 10 11  1  0
 11 12  1  0
 12 13  2  0
 13 14  1  0
 14 15  1  0
 15 16  1  0
 16 17  1  0
 17 18  1  0
 18 19  1  0
 19 20  1  0
 20 21  1  0
 21 22  2  0
 22 23  1  0
 23 24  2  0
 24 25  1  0
 25 26  1  0
 25 27  2  0
 25 28  2  0
 24 29  1  0
 29 30  2  0
 30 21  1  0
 19 31  1  0
 31 32  1  0
 32 16  1  0
 14 33  2  0
 33 34  1  0
 34 35  1  0
 35 36  2  0
 36 37  1  0
 37 38  1  0
 38 12  1  0
 38 34  2  0
M  END
> <Smiles>
Cc1cc(C#N)cc(C)c1Oc1nc(NC2CCN(Cc3ccc(S(N)(=O)=O)cc3)CC2)nc2cc[nH]c12

> <IC50_uM>
0.00424

> <pIC50>
8.372634143

> <Activity>
1

$$$$

  SciTegic10102310092D

 19 20  0  0  1  0            999 V2000
    6.1533    0.7377    0.0000 C   0  0
    5.5397   -0.6311    0.0000 C   0  0
    4.9531   -1.9978    0.0000 C   0  0  2  0  0  0
    5.8076   -3.2156    0.0000 C   0  0
    5.4010   -4.1292    0.0000 O   0  0
    3.9511   -0.8815    0.0000 O   0  0
    2.5987   -1.5004    0.0000 C   0  0  1  0  0  0
    1.2990   -0.7500    0.0000 N   0  0
    1.2990    0.7500    0.0000 C   0  0
    0.0000    1.5000    0.0000 C   0  0
    0.0000    3.0000    0.0000 C   0  0
   -1.2990    0.7500    0.0000 C   0  0
   -2.5981    1.5000    0.0000 N   0  0
   -1.2990   -0.7500    0.0000 N   0  0
    0.0000   -1.5000    0.0000 C   0  0
    0.0000   -3.0000    0.0000 O   0  0
    2.7343   -2.9815    0.0000 C   0  0
    4.2010   -3.2956    0.0000 C   0  0  2  0  0  0
    4.6063   -4.2098    0.0000 O   0  0
  1  2  3  0
  3  2  1  1
  3  4  1  0
  4  5  1  0
  3  6  1  0
  6  7  1  0
  7  8  1  6
  8  9  1  0
  9 10  2  0
 10 11  1  0
 10 12  1  0
 12 13  1  0
 12 14  2  0
 14 15  1  0
 15  8  1  0
 15 16  2  0
  7 17  1  0
 17 18  1  0
 18  3  1  0
 18 19  1  1
M  END
> <Smiles>
C#C[C@]1(CO)O[C@@H](n2cc(C)c(N)nc2=O)C[C@@H]1O

> <IC50_uM>
0.0045

> <pIC50>
8.346787486

> <Activity>
1

$$$$

  SciTegic10102310092D

 36 38  0  0  0  0            999 V2000
    9.0983   -0.7368    0.0000 C   0  0
    7.8003   -1.4887    0.0000 O   0  0
    6.4990   -0.7409    0.0000 C   0  0
    5.2003   -1.4932    0.0000 C   0  0
    3.8990   -0.7455    0.0000 O   0  0
    2.6003   -1.4977    0.0000 C   0  0
    2.6030   -2.9977    0.0000 O   0  0
    1.2990   -0.7500    0.0000 C   0  0
    1.2990    0.7500    0.0000 C   0  0
    0.0000    1.5000    0.0000 C   0  0
    0.0000    3.0000    0.0000 N   0  0
   -1.2990    0.7500    0.0000 C   0  0
   -2.6003    1.4977    0.0000 N   0  0
   -3.8990    0.7455    0.0000 C   0  0
   -5.2007    1.4909    0.0000 C   0  0
   -6.4972    0.7364    0.0000 C   0  0
   -6.4920   -0.7636    0.0000 C   0  0
   -7.7891   -1.5185    0.0000 C   0  0
   -9.0855   -2.2730    0.0000 N   0  0
   -5.1903   -1.5091    0.0000 C   0  0
   -3.8939   -0.7546    0.0000 C   0  0
   -1.2990   -0.7500    0.0000 C   0  0
    0.0000   -1.5000    0.0000 C   0  0
   -0.0031   -3.0008    0.0000 O   0  0
   -1.3039   -3.7494    0.0000 C   0  0
   -1.3092   -5.2494    0.0000 C   0  0
   -0.0128   -6.0039    0.0000 C   0  0
   -2.6108   -5.9949    0.0000 C   0  0
   -3.9072   -5.2404    0.0000 C   0  0
   -5.2111   -5.9837    0.0000 C   0  0
   -6.5072   -5.2269    0.0000 C   0  0
   -7.8111   -5.9702    0.0000 C   0  0
   -9.1142   -6.7130    0.0000 N   0  0
   -3.9020   -3.7404    0.0000 C   0  0
   -2.6004   -2.9949    0.0000 C   0  0
   -2.5953   -1.4949    0.0000 C   0  0
  1  2  1  0
  2  3  1  0
  3  4  1  0
  4  5  1  0
  5  6  1  0
  6  7  2  0
  6  8  1  0
  8  9  2  0
  9 10  1  0
 10 11  1  0
 10 12  2  0
 12 13  1  0
 13 14  1  0
 14 15  2  0
 15 16  1  0
 16 17  2  0
 17 18  1  0
 18 19  3  0
 17 20  1  0
 20 21  2  0
 21 14  1  0
 12 22  1  0
 22 23  2  0
 23  8  1  0
 23 24  1  0
 24 25  1  0
 25 26  2  0
 26 27  1  0
 26 28  1  0
 28 29  2  0
 29 30  1  0
 30 31  2  0
 31 32  1  0
 32 33  3  0
 29 34  1  0
 34 35  2  0
 35 25  1  0
 35 36  1  0
M  END
> <Smiles>
COCCOC(=O)c1cc(N)c(Nc2ccc(C#N)cc2)cc1Oc1c(C)cc(/C=C/C#N)cc1C

> <IC50_uM>
0.00456

> <pIC50>
8.341035157

> <Activity>
1

$$$$

  SciTegic10102310092D

 40 44  0  0  0  0            999 V2000
    2.5923    1.5001    0.0000 C   0  0
    3.8939    0.7546    0.0000 C   0  0
    5.1903    1.5091    0.0000 C   0  0
    6.4920    0.7636    0.0000 C   0  0
    7.7907    1.5158    0.0000 C   0  0
    9.0920    0.7680    0.0000 C   0  0
   10.3907    1.5203    0.0000 C   0  0
   11.6886    2.2721    0.0000 N   0  0
    6.4972   -0.7364    0.0000 C   0  0
    5.2007   -1.4909    0.0000 C   0  0
    5.2059   -2.9909    0.0000 C   0  0
    3.8990   -0.7455    0.0000 C   0  0
    2.6003   -1.4977    0.0000 O   0  0
    1.2990   -0.7500    0.0000 C   0  0
    1.2990    0.7500    0.0000 N   0  0
    0.0000    1.5000    0.0000 C   0  0
   -0.0031    3.0008    0.0000 N   0  0
   -1.3039    3.7494    0.0000 C   0  0
   -1.3092    5.2494    0.0000 C   0  0
   -2.6108    5.9949    0.0000 C   0  0
   -3.9073    5.2404    0.0000 N   0  0
   -5.2112    5.9836    0.0000 C   0  0
   -6.5072    5.2269    0.0000 C   0  0
   -7.8115    5.9678    0.0000 C   0  0
   -9.1053    5.2088    0.0000 C   0  0
   -9.0949    3.7089    0.0000 C   0  0
  -10.3895    2.9495    0.0000 S   0  0
  -10.3786    1.4495    0.0000 C   0  0
  -11.6941    3.6896    0.0000 O   0  0
  -11.6829    2.1899    0.0000 O   0  0
   -7.7907    2.9679    0.0000 C   0  0
   -6.4969    3.7269    0.0000 C   0  0
   -3.9021    3.7404    0.0000 C   0  0
   -2.6005    2.9949    0.0000 C   0  0
   -1.2990    0.7500    0.0000 N   0  0
   -1.2990   -0.7500    0.0000 C   0  0
   -2.4133   -1.7530    0.0000 C   0  0
   -1.8032   -3.1233    0.0000 C   0  0
   -0.3114   -2.9665    0.0000 S   0  0
    0.0000   -1.5000    0.0000 C   0  0
  1  2  1  0
  2  3  2  0
  3  4  1  0
  4  5  1  0
  5  6  2  0
  6  7  1  0
  7  8  3  0
  4  9  2  0
  9 10  1  0
 10 11  1  0
 10 12  2  0
 12  2  1  0
 12 13  1  0
 13 14  1  0
 14 15  2  0
 15 16  1  0
 16 17  1  0
 17 18  1  0
 18 19  1  0
 19 20  1  0
 20 21  1  0
 21 22  1  0
 22 23  1  0
 23 24  2  0
 24 25  1  0
 25 26  2  0
 26 27  1  0
 27 28  1  0
 27 29  2  0
 27 30  2  0
 26 31  1  0
 31 32  2  0
 32 23  1  0
 21 33  1  0
 33 34  1  0
 34 18  1  0
 16 35  2  0
 35 36  1  0
 36 37  1  0
 37 38  2  0
 38 39  1  0
 39 40  1  0
 40 14  1  0
 40 36  2  0
M  END
> <Smiles>
Cc1cc(/C=C/C#N)cc(C)c1Oc1nc(NC2CCN(Cc3ccc(S(C)(=O)=O)cc3)CC2)nc2ccsc12

> <IC50_uM>
0.00468

> <pIC50>
8.329754147

> <Activity>
1

$$$$

  SciTegic10102310092D

 19 20  0  0  1  0            999 V2000
    2.4245   -5.6972    0.0000 C   0  0
    3.3069   -4.4843    0.0000 C   0  0
    4.2010   -3.2956    0.0000 C   0  0  2  0  0  0
    5.6825   -3.4315    0.0000 C   0  0
    6.5681   -2.2209    0.0000 O   0  0
    2.7343   -2.9815    0.0000 O   0  0
    2.5987   -1.5004    0.0000 C   0  0  3  0  0  0
    1.2990   -0.7500    0.0000 N   0  0
    1.2990    0.7500    0.0000 C   0  0
    0.0000    1.5000    0.0000 C   0  0
   -1.2990    0.7500    0.0000 C   0  0  3  0  0  0
   -2.5981    1.5000    0.0000 N   0  0
   -1.2990   -0.7500    0.0000 N   0  0
    0.0000   -1.5000    0.0000 C   0  0
    0.0000   -3.0000    0.0000 O   0  0
    3.9511   -0.8815    0.0000 C   0  0  1  0  0  0
    4.2566    0.5871    0.0000 O   0  0
    4.9531   -1.9978    0.0000 C   0  0  2  0  0  0
    6.4451   -1.8434    0.0000 O   0  0
  1  2  3  0
  3  2  1  6
  3  4  1  0
  4  5  1  0
  3  6  1  0
  6  7  1  0
  7  8  1  4
  8  9  1  0
  9 10  2  0
 10 11  1  0
 11 12  1  4
 11 13  1  0
 13 14  1  0
 14  8  1  0
 14 15  2  0
  7 16  1  0
 16 17  1  1
 16 18  1  0
 18  3  1  0
 18 19  1  6
M  END
> <Smiles>
C#C[C@]1(CO)OC(N2C=CC(N)NC2=O)[C@@H](O)[C@@H]1O

> <IC50_uM>
0.0048

> <pIC50>
8.318758763

> <Activity>
1

$$$$

  SciTegic10102310092D

 28 30  0  0  0  0            999 V2000
    2.5981   -1.5000    0.0000 C   0  0
    1.2990   -0.7500    0.0000 C   0  0
    1.2990    0.7500    0.0000 C   0  0
    0.0000    1.5000    0.0000 C   0  0
   -0.0031    3.0008    0.0000 C   0  0
   -1.3039    3.7494    0.0000 C   0  0
   -2.6005    2.9949    0.0000 C   0  0
   -3.9021    3.7404    0.0000 C   0  0
   -3.9073    5.2404    0.0000 C   0  0
   -5.2089    5.9859    0.0000 Cl  0  0
   -2.6108    5.9949    0.0000 C   0  0
   -2.6129    7.4957    0.0000 O   0  0
   -1.3147    8.2488    0.0000 C   0  0
   -1.3146    9.7488    0.0000 C   0  0
   -0.0156   10.4988    0.0000 C   0  0
   -0.0156   11.9997    0.0000 C   0  0
   -0.0156   13.4997    0.0000 N   0  0
    1.2834    9.7488    0.0000 C   0  0
    1.2834    8.2488    0.0000 C   0  0
    2.5832    7.4984    0.0000 C   0  0
    3.8822    6.7484    0.0000 N   0  0
   -0.0156    7.4988    0.0000 C   0  0
   -1.3092    5.2494    0.0000 C   0  0
   -0.0128    6.0039    0.0000 F   0  0
   -1.2990    0.7500    0.0000 N   0  0
   -1.2990   -0.7500    0.0000 N   0  0
    0.0000   -1.5000    0.0000 C   0  0
    0.0000   -3.0000    0.0000 O   0  0
  1  2  1  0
  2  3  2  0
  3  4  1  0
  4  5  1  0
  5  6  1  0
  6  7  2  0
  7  8  1  0
  8  9  2  0
  9 10  1  0
  9 11  1  0
 11 12  1  0
 12 13  1  0
 13 14  2  0
 14 15  1  0
 15 16  1  0
 16 17  3  0
 15 18  2  0
 18 19  1  0
 19 20  1  0
 20 21  3  0
 19 22  2  0
 22 13  1  0
 11 23  2  0
 23  6  1  0
 23 24  1  0
  4 25  2  0
 25 26  1  0
 26 27  1  0
 27  2  1  0
 27 28  2  0
M  END
> <Smiles>
Cc1cc(Cc2ccc(Cl)c(Oc3cc(C#N)cc(C#N)c3)c2F)n[nH]c1=O

> <IC50_uM>
0.005

> <pIC50>
8.301029996

> <Activity>
1

$$$$

  SciTegic10102310092D

 33 36  0  0  0  0            999 V2000
    3.8805   -1.4410    0.0000 O   0  0
    2.4133   -1.7530    0.0000 C   0  0
    1.2990   -0.7500    0.0000 C   0  0
    1.2990    0.7500    0.0000 C   0  0
    0.0000    1.5000    0.0000 C   0  0
   -1.2990    0.7500    0.0000 C   0  0
   -1.2990   -0.7500    0.0000 C   0  0
    0.0000   -1.5000    0.0000 C   0  0
    0.3114   -2.9665    0.0000 C   0  0
   -0.6923   -4.0811    0.0000 O   0  0
    1.8032   -3.1233    0.0000 N   0  0
    2.5551   -4.4192    0.0000 C   0  0
    4.0559   -4.4171    0.0000 C   0  0
    4.8090   -5.7153    0.0000 O   0  0
    6.3098   -5.7131    0.0000 C   0  0
    7.0575   -4.4128    0.0000 S   0  0
    7.0629   -7.0113    0.0000 N   0  0
    8.5637   -7.0091    0.0000 C   0  0
    9.3115   -5.7088    0.0000 O   0  0
    9.3168   -8.3073    0.0000 C   0  0
   10.8169   -8.3074    0.0000 C   0  0
   11.5669   -9.6064    0.0000 C   0  0
   10.8170  -10.9054    0.0000 N   0  0
    9.3170  -10.9055    0.0000 C   0  0
    8.5670  -12.2046    0.0000 Cl  0  0
    8.5669   -9.6065    0.0000 C   0  0
    6.3148   -8.3123    0.0000 C   0  0
    7.0653   -9.6112    0.0000 C   0  0
    6.3158  -10.9105    0.0000 C   0  0
    4.8158  -10.9111    0.0000 C   0  0
    4.0663  -12.2104    0.0000 Cl  0  0
    4.0653   -9.6124    0.0000 C   0  0
    4.8148   -8.3130    0.0000 C   0  0
  1  2  2  0
  2  3  1  0
  3  4  2  0
  4  5  1  0
  5  6  2  0
  6  7  1  0
  7  8  2  0
  8  3  1  0
  8  9  1  0
  9 10  2  0
  9 11  1  0
 11  2  1  0
 11 12  1  0
 12 13  1  0
 13 14  1  0
 14 15  1  0
 15 16  2  0
 15 17  1  0
 17 18  1  0
 18 19  2  0
 18 20  1  0
 20 21  2  0
 21 22  1  0
 22 23  2  0
 23 24  1  0
 24 25  1  0
 24 26  2  0
 26 20  1  0
 17 27  1  0
 27 28  2  0
 28 29  1  0
 29 30  2  0
 30 31  1  0
 30 32  1  0
 32 33  2  0
 33 27  1  0
M  END
> <Smiles>
O=C1c2ccccc2C(=O)N1CCOC(=S)N(C(=O)c1ccnc(Cl)c1)c1ccc(Cl)cc1

> <IC50_uM>
0.005

> <pIC50>
8.301029996

> <Activity>
1

$$$$

  SciTegic10102310092D

 23 24  0  0  0  0            999 V2000
    3.8983   -0.7566    0.0000 C   0  0
    2.5973   -1.5031    0.0000 C   0  0
    1.2990   -0.7500    0.0000 C   0  0
    1.2990    0.7500    0.0000 C   0  0
    2.5981    1.5000    0.0000 C   0  0
    0.0000    1.5000    0.0000 N   0  0
   -1.2990    0.7500    0.0000 C   0  0
   -2.5981    1.5000    0.0000 O   0  0
   -1.2990   -0.7500    0.0000 C   0  0
   -2.5972   -1.5031    0.0000 N   0  0
   -3.8976   -0.7554    0.0000 C   0  0
   -2.5951   -3.0039    0.0000 C   0  0
   -3.8933   -3.7570    0.0000 C   0  0
   -3.8912   -5.2570    0.0000 O   0  0
    0.0000   -1.5000    0.0000 C   0  0
    0.0031   -3.0008    0.0000 C   0  0
    1.3039   -3.7494    0.0000 C   0  0
    1.3092   -5.2494    0.0000 C   0  0
    2.6108   -5.9949    0.0000 C   0  0
    3.9073   -5.2404    0.0000 C   0  0
    3.9021   -3.7404    0.0000 C   0  0
    5.1985   -2.9859    0.0000 C   0  0
    2.6004   -2.9949    0.0000 C   0  0
  1  2  1  0
  2  3  1  0
  3  4  2  0
  4  5  1  0
  4  6  1  0
  6  7  1  0
  7  8  2  0
  7  9  1  0
  9 10  1  0
 10 11  1  0
 10 12  1  0
 12 13  1  0
 13 14  1  0
  9 15  2  0
 15  3  1  0
 15 16  1  0
 16 17  1  0
 17 18  2  0
 18 19  1  0
 19 20  2  0
 20 21  1  0
 21 22  1  0
 21 23  2  0
 23 17  1  0
M  END
> <Smiles>
CCc1c(C)[nH]c(=O)c(N(C)CCO)c1Cc1cccc(C)c1

> <IC50_uM>
0.005

> <pIC50>
8.301029996

> <Activity>
1

$$$$

  SciTegic10102310092D

 25 26  0  0  0  0            999 V2000
    3.8983   -0.7566    0.0000 C   0  0
    2.5973   -1.5031    0.0000 C   0  0
    1.2990   -0.7500    0.0000 C   0  0
    1.2990    0.7500    0.0000 C   0  0
    2.5981    1.5000    0.0000 C   0  0
    0.0000    1.5000    0.0000 N   0  0
   -1.2990    0.7500    0.0000 C   0  0
   -2.5981    1.5000    0.0000 O   0  0
   -1.2990   -0.7500    0.0000 C   0  0
   -2.5972   -1.5031    0.0000 N   0  0
   -3.8976   -0.7554    0.0000 C   0  0
   -2.5951   -3.0039    0.0000 C   0  0
   -3.8933   -3.7570    0.0000 C   0  0
   -3.8912   -5.2578    0.0000 C   0  0
   -5.1894   -6.0109    0.0000 C   0  0
   -6.4869   -6.7636    0.0000 N   0  0
    0.0000   -1.5000    0.0000 C   0  0
    0.0031   -3.0008    0.0000 C   0  0
    1.3039   -3.7494    0.0000 C   0  0
    1.3092   -5.2494    0.0000 C   0  0
    2.6108   -5.9949    0.0000 C   0  0
    3.9073   -5.2404    0.0000 C   0  0
    3.9021   -3.7404    0.0000 C   0  0
    5.1985   -2.9859    0.0000 C   0  0
    2.6004   -2.9949    0.0000 C   0  0
  1  2  1  0
  2  3  1  0
  3  4  2  0
  4  5  1  0
  4  6  1  0
  6  7  1  0
  7  8  2  0
  7  9  1  0
  9 10  1  0
 10 11  1  0
 10 12  1  0
 12 13  1  0
 13 14  1  0
 14 15  1  0
 15 16  3  0
  9 17  2  0
 17  3  1  0
 17 18  1  0
 18 19  1  0
 19 20  2  0
 20 21  1  0
 21 22  2  0
 22 23  1  0
 23 24  1  0
 23 25  2  0
 25 19  1  0
M  END
> <Smiles>
CCc1c(C)[nH]c(=O)c(N(C)CCCC#N)c1Cc1cccc(C)c1

> <IC50_uM>
0.005

> <pIC50>
8.301029996

> <Activity>
1

$$$$

  SciTegic10102310092D

 28 30  0  0  0  0            999 V2000
    2.5951   -3.0031    0.0000 C   0  0
    2.5973   -1.5031    0.0000 O   0  0
    1.2990   -0.7500    0.0000 C   0  0
    1.2990    0.7500    0.0000 C   0  0
    0.0000    1.5000    0.0000 C   0  0
   -1.2990    0.7500    0.0000 C   0  0
   -2.6003    1.4977    0.0000 C   0  0
   -3.8990    0.7455    0.0000 N   0  0
   -3.8964   -0.7545    0.0000 C   0  0
   -5.2003    1.4932    0.0000 C   0  0
   -6.4994    0.7432    0.0000 N   0  0
   -7.7985    1.4932    0.0000 C   0  0
   -9.0967    0.7401    0.0000 C   0  0
   -9.0945   -0.7608    0.0000 C   0  0
  -10.3909   -1.5154    0.0000 C   0  0
  -11.6926   -0.7699    0.0000 Cl  0  0
  -10.3857   -3.0154    0.0000 C   0  0
   -9.0840   -3.7608    0.0000 C   0  0
   -7.7876   -3.0063    0.0000 C   0  0
   -7.7928   -1.5063    0.0000 C   0  0
   -6.4964   -0.7518    0.0000 Cl  0  0
   -7.7985    2.9932    0.0000 C   0  0
   -9.0976    3.7432    0.0000 C   0  0
   -6.4995    3.7432    0.0000 C   0  0
   -6.4995    5.2432    0.0000 O   0  0
   -5.2004    2.9933    0.0000 N   0  0
   -1.2990   -0.7500    0.0000 C   0  0
    0.0000   -1.5000    0.0000 C   0  0
  1  2  1  0
  2  3  1  0
  3  4  2  0
  4  5  1  0
  5  6  2  0
  6  7  1  0
  7  8  1  0
  8  9  1  0
  8 10  1  0
 10 11  2  0
 11 12  1  0
 12 13  1  0
 13 14  1  0
 14 15  2  0
 15 16  1  0
 15 17  1  0
 17 18  2  0
 18 19  1  0
 19 20  2  0
 20 14  1  0
 20 21  1  0
 12 22  2  0
 22 23  1  0
 22 24  1  0
 24 25  2  0
 24 26  1  0
 26 10  1  0
  6 27  1  0
 27 28  2  0
 28  3  1  0
M  END
> <Smiles>
COc1ccc(CN(C)c2nc(Cc3c(Cl)cccc3Cl)c(C)c(=O)[nH]2)cc1

> <IC50_uM>
0.005

> <pIC50>
8.301029996

> <Activity>
1

$$$$

  SciTegic10102310092D

 34 36  0  0  0  0            999 V2000
    2.5981   -1.5000    0.0000 C   0  0
    1.2990   -0.7500    0.0000 C   0  0
    1.2990    0.7500    0.0000 C   0  0
    0.0000    1.5000    0.0000 C   0  0
    0.0000    3.0008    0.0000 S   0  0
   -1.2993    3.7504    0.0000 N   0  0
    1.2985    3.7517    0.0000 O   0  0
   -0.0007    4.5008    0.0000 O   0  0
   -1.2990    0.7500    0.0000 N   0  0
   -1.2990   -0.7500    0.0000 C   0  0
    0.0000   -1.5000    0.0000 C   0  0
   -0.0031   -3.0008    0.0000 N   0  0
   -1.3039   -3.7494    0.0000 C   0  0
   -2.6016   -2.9971    0.0000 O   0  0
   -1.3070   -5.2502    0.0000 C   0  0
   -2.6078   -5.9988    0.0000 O   0  0
   -2.6109   -7.4996    0.0000 C   0  0
   -1.3118   -8.2497    0.0000 C   0  0
   -1.3119   -9.7497    0.0000 C   0  0
   -2.6109  -10.4997    0.0000 C   0  0
   -2.6110  -11.9997    0.0000 Cl  0  0
   -3.9100   -9.7497    0.0000 C   0  0
   -3.9099   -8.2497    0.0000 C   0  0
   -5.2112   -7.5019    0.0000 C   0  0
   -5.2139   -6.0019    0.0000 O   0  0
   -6.5099   -8.2542    0.0000 C   0  0
   -7.8116   -7.5088    0.0000 C   0  0
   -9.1080   -8.2633    0.0000 C   0  0
  -10.4097   -7.5178    0.0000 Cl  0  0
   -9.1028   -9.7633    0.0000 C   0  0
   -7.8012  -10.5088    0.0000 C   0  0
   -7.7960  -12.0096    0.0000 C   0  0
   -7.7908  -13.5096    0.0000 N   0  0
   -6.5048   -9.7543    0.0000 C   0  0
  1  2  1  0
  2  3  2  0
  3  4  1  0
  4  5  1  0
  5  6  1  0
  5  7  2  0
  5  8  2  0
  4  9  2  0
  9 10  1  0
 10 11  2  0
 11  2  1  0
 11 12  1  0
 12 13  1  0
 13 14  2  0
 13 15  1  0
 15 16  1  0
 16 17  1  0
 17 18  2  0
 18 19  1  0
 19 20  2  0
 20 21  1  0
 20 22  1  0
 22 23  2  0
 23 17  1  0
 23 24  1  0
 24 25  2  0
 24 26  1  0
 26 27  2  0
 27 28  1  0
 28 29  1  0
 28 30  2  0
 30 31  1  0
 31 32  1  0
 32 33  3  0
 31 34  2  0
 34 26  1  0
M  END
> <Smiles>
Cc1cc(S(N)(=O)=O)ncc1NC(=O)COc1ccc(Cl)cc1C(=O)c1cc(Cl)cc(C#N)c1

> <IC50_uM>
0.005012

> <pIC50>
8.299988938

> <Activity>
1

$$$$

  SciTegic10102310092D

 41 45  0  0  0  0            999 V2000
    2.5923    1.5001    0.0000 C   0  0
    3.8939    0.7546    0.0000 C   0  0
    5.1903    1.5091    0.0000 C   0  0
    6.4920    0.7636    0.0000 C   0  0
    7.7891    1.5185    0.0000 C   0  0
    9.0856    2.2729    0.0000 N   0  0
    6.4972   -0.7364    0.0000 C   0  0
    5.2007   -1.4909    0.0000 C   0  0
    5.2059   -2.9909    0.0000 C   0  0
    3.8990   -0.7455    0.0000 C   0  0
    2.6003   -1.4977    0.0000 O   0  0
    1.2990   -0.7500    0.0000 C   0  0
    1.2990    0.7500    0.0000 N   0  0
    0.0000    1.5000    0.0000 C   0  0
   -0.0031    3.0008    0.0000 N   0  0
   -1.3039    3.7494    0.0000 C   0  0  3  0  0  0
   -1.3092    5.2494    0.0000 C   0  0
   -2.6108    5.9949    0.0000 C   0  0
   -3.9073    5.2404    0.0000 C   0  0  3  0  0  0
   -5.2112    5.9836    0.0000 N   0  0
   -6.5072    5.2269    0.0000 C   0  0
   -7.8111    5.9701    0.0000 C   0  0
   -9.1076    5.2156    0.0000 C   0  0
  -10.4092    5.9611    0.0000 C   0  0
  -10.4145    7.4611    0.0000 C   0  0
  -11.7168    8.2070    0.0000 S   0  0
  -11.7216    9.7070    0.0000 C   0  0
  -13.0137    7.4533    0.0000 O   0  0
  -13.0181    8.9531    0.0000 O   0  0
   -9.1180    8.2156    0.0000 C   0  0
   -7.8164    7.4702    0.0000 C   0  0
   -3.9021    3.7404    0.0000 C   0  0
   -2.6005    2.9949    0.0000 C   0  0
   -1.2990    0.7500    0.0000 N   0  0
   -1.2990   -0.7500    0.0000 C   0  0
    0.0000   -1.5000    0.0000 C   0  0
   -0.3114   -2.9665    0.0000 S   0  0
    1.1509   -2.6325    0.0000 O   0  0
   -0.7959   -4.3861    0.0000 O   0  0
   -1.8032   -3.1233    0.0000 C   0  0
   -2.4133   -1.7530    0.0000 C   0  0
  1  2  1  0
  2  3  2  0
  3  4  1  0
  4  5  1  0
  5  6  3  0
  4  7  2  0
  7  8  1  0
  8  9  1  0
  8 10  2  0
 10  2  1  0
 10 11  1  0
 11 12  1  0
 12 13  2  0
 13 14  1  0
 14 15  1  0
 16 15  1  4
 16 17  1  0
 17 18  1  0
 18 19  1  0
 19 20  1  4
 20 21  1  0
 21 22  1  0
 22 23  2  0
 23 24  1  0
 24 25  2  0
 25 26  1  0
 26 27  1  0
 26 28  2  0
 26 29  2  0
 25 30  1  0
 30 31  2  0
 31 22  1  0
 19 32  1  0
 32 33  1  0
 33 16  1  0
 14 34  2  0
 34 35  1  0
 35 36  2  0
 36 12  1  0
 36 37  1  0
 37 38  2  0
 37 39  2  0
 37 40  1  0
 40 41  2  0
 41 35  1  0
M  END
> <Smiles>
Cc1cc(C#N)cc(C)c1Oc1nc(NC2CCC(NCc3ccc(S(C)(=O)=O)cc3)CC2)nc2c1S(=O)(=O)C=C2

> <IC50_uM>
0.00514

> <pIC50>
8.289036881

> <Activity>
1

$$$$

  SciTegic10102310092D

 29 32  0  0  0  0            999 V2000
   -3.4458   -7.0055    0.0000 N   0  0
   -2.7003   -8.3072    0.0000 C   0  0
   -1.9545   -9.6096    0.0000 C   0  0
   -2.7090  -10.9060    0.0000 C   0  0
   -1.9635  -12.2076    0.0000 C   0  0
   -2.7181  -13.5040    0.0000 Cl  0  0
   -0.4635  -12.2129    0.0000 C   0  0
    0.2911  -10.9165    0.0000 C   0  0
    1.7919  -10.9187    0.0000 O   0  0
    2.5450   -9.6205    0.0000 C   0  0
    1.7951   -8.3214    0.0000 C   0  0
    2.5451   -7.0223    0.0000 C   0  0
    1.7974   -5.7210    0.0000 O   0  0
    2.5497   -4.4224    0.0000 C   0  0
    1.8032   -3.1233    0.0000 C   0  0
    2.4133   -1.7530    0.0000 N   0  0
    1.2990   -0.7500    0.0000 C   0  0
    1.2990    0.7500    0.0000 C   0  0
    0.0000    1.5000    0.0000 C   0  0
   -1.2990    0.7500    0.0000 C   0  0
   -1.2990   -0.7500    0.0000 C   0  0
   -2.5981   -1.5000    0.0000 Cl  0  0
    0.0000   -1.5000    0.0000 C   0  0
    0.3114   -2.9665    0.0000 S   0  0
    4.0452   -7.0225    0.0000 C   0  0
    4.7951   -8.3215    0.0000 C   0  0
    4.0450   -9.6205    0.0000 C   0  0
    4.7950  -10.9196    0.0000 Cl  0  0
   -0.4545   -9.6148    0.0000 C   0  0
  1  2  3  0
  2  3  1  0
  3  4  2  0
  4  5  1  0
  5  6  1  0
  5  7  2  0
  7  8  1  0
  8  9  1  0
  9 10  1  0
 10 11  2  0
 11 12  1  0
 12 13  1  0
 13 14  1  0
 14 15  1  0
 15 16  2  0
 16 17  1  0
 17 18  2  0
 18 19  1  0
 19 20  2  0
 20 21  1  0
 21 22  1  0
 21 23  2  0
 23 17  1  0
 23 24  1  0
 24 15  1  0
 12 25  2  0
 25 26  1  0
 26 27  2  0
 27 10  1  0
 27 28  1  0
  8 29  2  0
 29  3  1  0
M  END
> <Smiles>
N#Cc1cc(Cl)cc(Oc2cc(OCc3nc4cccc(Cl)c4s3)ccc2Cl)c1

> <IC50_uM>
0.00515

> <pIC50>
8.288192771

> <Activity>
1

$$$$

  SciTegic10102310092D

 20 22  0  0  1  0            999 V2000
    0.4505   -8.1187    0.0000 C   0  0
   -0.6894   -7.1436    0.0000 C   0  0
   -1.8348   -6.1949    0.0000 C   0  0  2  0  0  0
   -3.2443   -6.6708    0.0000 C   0  0
   -4.0059   -6.0227    0.0000 O   0  0
   -0.4810   -5.5489    0.0000 O   0  0
   -0.6928   -4.0817    0.0000 C   0  0  1  0  0  0
    0.3114   -2.9665    0.0000 N   0  0
    1.8032   -3.1233    0.0000 C   0  0
    2.4133   -1.7530    0.0000 N   0  0
    1.2990   -0.7500    0.0000 C   0  0
    1.2990    0.7500    0.0000 C   0  0
    2.5981    1.5000    0.0000 N   0  0
    0.0000    1.5000    0.0000 N   0  0
   -1.2990    0.7500    0.0000 C   0  0
   -1.2990   -0.7500    0.0000 N   0  0
    0.0000   -1.5000    0.0000 C   0  0
   -2.1519   -3.7886    0.0000 C   0  0
   -2.8675   -5.1069    0.0000 C   0  0  2  0  0  0
   -3.8589   -5.2376    0.0000 O   0  0
  1  2  3  0
  3  2  1  1
  3  4  1  0
  4  5  1  0
  3  6  1  0
  6  7  1  0
  7  8  1  6
  8  9  1  0
  9 10  2  0
 10 11  1  0
 11 12  2  0
 12 13  1  0
 12 14  1  0
 14 15  2  0
 15 16  1  0
 16 17  2  0
 17 11  1  0
 17  8  1  0
  7 18  1  0
 18 19  1  0
 19  3  1  0
 19 20  1  1
M  END
> <Smiles>
C#C[C@]1(CO)O[C@@H](n2cnc3c(N)ncnc32)C[C@@H]1O

> <IC50_uM>
0.0054

> <pIC50>
8.26760624

> <Activity>
1

$$$$

  SciTegic10102310092D

 40 44  0  0  0  0            999 V2000
    2.5923    1.5001    0.0000 C   0  0
    3.8939    0.7546    0.0000 C   0  0
    5.1903    1.5091    0.0000 C   0  0
    6.4920    0.7636    0.0000 C   0  0
    7.7907    1.5158    0.0000 C   0  0
    9.0920    0.7680    0.0000 C   0  0
   10.3907    1.5203    0.0000 C   0  0
   11.6886    2.2721    0.0000 N   0  0
    6.4972   -0.7364    0.0000 C   0  0
    5.2007   -1.4909    0.0000 C   0  0
    5.2059   -2.9909    0.0000 C   0  0
    3.8990   -0.7455    0.0000 C   0  0
    2.6003   -1.4977    0.0000 O   0  0
    1.2990   -0.7500    0.0000 C   0  0
    1.2990    0.7500    0.0000 N   0  0
    0.0000    1.5000    0.0000 C   0  0
   -0.0031    3.0008    0.0000 N   0  0
   -1.3039    3.7494    0.0000 C   0  0
   -1.3092    5.2494    0.0000 C   0  0
   -2.6108    5.9949    0.0000 C   0  0
   -3.9073    5.2404    0.0000 N   0  0
   -5.2112    5.9836    0.0000 C   0  0
   -6.5072    5.2269    0.0000 C   0  0
   -7.8115    5.9678    0.0000 C   0  0
   -9.1053    5.2088    0.0000 C   0  0
   -9.0949    3.7089    0.0000 C   0  0
  -10.3895    2.9495    0.0000 S   0  0
  -10.3786    1.4495    0.0000 N   0  0
  -11.6941    3.6896    0.0000 O   0  0
  -11.6829    2.1899    0.0000 O   0  0
   -7.7907    2.9679    0.0000 C   0  0
   -6.4969    3.7269    0.0000 C   0  0
   -3.9021    3.7404    0.0000 C   0  0
   -2.6005    2.9949    0.0000 C   0  0
   -1.2990    0.7500    0.0000 N   0  0
   -1.2990   -0.7500    0.0000 C   0  0
   -2.4133   -1.7530    0.0000 C   0  0
   -1.8032   -3.1233    0.0000 C   0  0
   -0.3114   -2.9665    0.0000 S   0  0
    0.0000   -1.5000    0.0000 C   0  0
  1  2  1  0
  2  3  2  0
  3  4  1  0
  4  5  1  0
  5  6  2  0
  6  7  1  0
  7  8  3  0
  4  9  2  0
  9 10  1  0
 10 11  1  0
 10 12  2  0
 12  2  1  0
 12 13  1  0
 13 14  1  0
 14 15  2  0
 15 16  1  0
 16 17  1  0
 17 18  1  0
 18 19  1  0
 19 20  1  0
 20 21  1  0
 21 22  1  0
 22 23  1  0
 23 24  2  0
 24 25  1  0
 25 26  2  0
 26 27  1  0
 27 28  1  0
 27 29  2  0
 27 30  2  0
 26 31  1  0
 31 32  2  0
 32 23  1  0
 21 33  1  0
 33 34  1  0
 34 18  1  0
 16 35  2  0
 35 36  1  0
 36 37  1  0
 37 38  2  0
 38 39  1  0
 39 40  1  0
 40 14  1  0
 40 36  2  0
M  END
> <Smiles>
Cc1cc(/C=C/C#N)cc(C)c1Oc1nc(NC2CCN(Cc3ccc(S(N)(=O)=O)cc3)CC2)nc2ccsc12

> <IC50_uM>
0.0055

> <pIC50>
8.259637311

> <Activity>
1

$$$$

  SciTegic10102310092D

 25 27  0  0  0  0            999 V2000
    2.5981   -1.5000    0.0000 C   0  0
    1.2990   -0.7500    0.0000 C   0  0
    1.2990    0.7500    0.0000 C   0  0
    0.0000    1.5000    0.0000 C   0  0
    0.0000    3.0000    0.0000 Br  0  0
   -1.2990    0.7500    0.0000 C   0  0
   -1.2990   -0.7500    0.0000 C   0  0
   -2.5981   -1.5000    0.0000 C   0  0
    0.0000   -1.5000    0.0000 C   0  0
    0.0031   -3.0008    0.0000 S   0  0
    1.3039   -3.7494    0.0000 C   0  0
    1.3092   -5.2494    0.0000 C   0  0
    2.6108   -5.9949    0.0000 C   0  0
    3.9073   -5.2404    0.0000 N   0  0
    3.9021   -3.7404    0.0000 C   0  0
    5.1977   -2.9829    0.0000 N   0  0
    5.1903   -1.4820    0.0000 C   0  0
    6.4841   -0.7230    0.0000 C   0  0
    6.4738    0.7770    0.0000 C   0  0
    5.1696    1.5180    0.0000 C   0  0
    5.1592    3.0188    0.0000 C   0  0
    5.1488    4.5187    0.0000 N   0  0
    3.8757    0.7590    0.0000 C   0  0
    3.8861   -0.7410    0.0000 C   0  0
    2.6004   -2.9949    0.0000 N   0  0
  1  2  1  0
  2  3  2  0
  3  4  1  0
  4  5  1  0
  4  6  2  0
  6  7  1  0
  7  8  1  0
  7  9  2  0
  9  2  1  0
  9 10  1  0
 10 11  1  0
 11 12  2  0
 12 13  1  0
 13 14  2  0
 14 15  1  0
 15 16  1  0
 16 17  1  0
 17 18  2  0
 18 19  1  0
 19 20  2  0
 20 21  1  0
 21 22  3  0
 20 23  1  0
 23 24  2  0
 24 17  1  0
 15 25  2  0
 25 11  1  0
M  END
> <Smiles>
Cc1cc(Br)cc(C)c1Sc1ccnc(Nc2ccc(C#N)cc2)n1

> <IC50_uM>
0.0057

> <pIC50>
8.244125144

> <Activity>
1

$$$$

  SciTegic10102310092D

 41 44  0  0  0  0            999 V2000
    3.8983   -0.7459    0.0000 C   0  0
    2.6003   -1.4977    0.0000 O   0  0
    1.2990   -0.7500    0.0000 C   0  0
    1.2990    0.7500    0.0000 C   0  0
    0.0000    1.5000    0.0000 C   0  0
    0.0000    3.0000    0.0000 N   0  0
   -1.2991    3.7500    0.0000 C   0  0
   -1.3022    5.2508    0.0000 S   0  0  3  0  0  0
   -0.0044    6.0031    0.0000 O   0  0
   -2.6030    5.9994    0.0000 C   0  0
   -2.6061    7.5002    0.0000 C   0  0
   -1.3084    8.2525    0.0000 O   0  0
   -3.9069    8.2488    0.0000 N   0  0
   -3.9100    9.7496    0.0000 C   0  0
   -5.2091   10.4996    0.0000 C   0  0
   -5.2091   11.9996    0.0000 C   0  0
   -3.9101   12.7497    0.0000 C   0  0
   -3.9101   14.2505    0.0000 C   0  0
   -3.9102   15.7505    0.0000 N   0  0
   -2.6110   11.9997    0.0000 C   0  0
   -2.6110   10.4997    0.0000 C   0  0
   -2.5981    3.0000    0.0000 N   0  0
   -2.5981    1.5000    0.0000 C   0  0
   -3.8994    0.7522    0.0000 N   0  0
   -5.1981    1.5045    0.0000 C   0  0
   -6.4998    0.7590    0.0000 C   0  0
   -6.5050   -0.7409    0.0000 C   0  0
   -7.7962    1.5135    0.0000 C   0  0
   -7.7910    3.0135    0.0000 C   0  0
   -9.0866    3.7711    0.0000 C   0  0
   -9.0793    5.2719    0.0000 C   0  0
  -10.3749    6.0295    0.0000 C   0  0
  -11.6698    6.7866    0.0000 N   0  0
   -6.4894    3.7590    0.0000 C   0  0
   -5.1930    3.0045    0.0000 C   0  0
   -3.8914    3.7501    0.0000 C   0  0
   -1.2990    0.7500    0.0000 C   0  0
   -1.2990   -0.7500    0.0000 C   0  0
    0.0000   -1.5000    0.0000 C   0  0
   -0.0031   -3.0008    0.0000 O   0  0
   -1.3032   -3.7490    0.0000 C   0  0
  1  2  1  0
  2  3  1  0
  3  4  2  0
  4  5  1  0
  5  6  2  0
  6  7  1  0
  7  8  1  0
  8  9  2  0
  8 10  1  4
 10 11  1  0
 11 12  2  0
 11 13  1  0
 13 14  1  0
 14 15  2  0
 15 16  1  0
 16 17  2  0
 17 18  1  0
 18 19  3  0
 17 20  1  0
 20 21  2  0
 21 14  1  0
  7 22  2  0
 22 23  1  0
 23 24  1  0
 24 25  1  0
 25 26  2  0
 26 27  1  0
 26 28  1  0
 28 29  2  0
 29 30  1  0
 30 31  2  0
 31 32  1  0
 32 33  3  0
 29 34  1  0
 34 35  2  0
 35 25  1  0
 35 36  1  0
 23 37  2  0
 37  5  1  0
 37 38  1  0
 38 39  2  0
 39  3  1  0
 39 40  1  0
 40 41  1  0
M  END
> <Smiles>
COc1cc2nc([S+]([O-])CC(=O)Nc3ccc(C#N)cc3)nc(Nc3c(C)cc(/C=C/C#N)cc3C)c2cc1OC

> <IC50_uM>
0.0057

> <pIC50>
8.244125144

> <Activity>
1

$$$$

  SciTegic10102310092D

 37 41  0  0  0  0            999 V2000
    2.5923    1.5001    0.0000 C   0  0
    3.8939    0.7546    0.0000 C   0  0
    5.1903    1.5091    0.0000 C   0  0
    6.4920    0.7636    0.0000 C   0  0
    7.7891    1.5185    0.0000 C   0  0
    9.0856    2.2729    0.0000 N   0  0
    6.4972   -0.7364    0.0000 C   0  0
    5.2007   -1.4909    0.0000 C   0  0
    5.2059   -2.9909    0.0000 C   0  0
    3.8990   -0.7455    0.0000 C   0  0
    2.6003   -1.4977    0.0000 O   0  0
    1.2990   -0.7500    0.0000 C   0  0
    1.2990    0.7500    0.0000 N   0  0
    0.0000    1.5000    0.0000 C   0  0
   -0.0031    3.0008    0.0000 N   0  0
   -1.3039    3.7494    0.0000 C   0  0
   -1.3092    5.2494    0.0000 C   0  0
   -2.6108    5.9949    0.0000 C   0  0
   -3.9073    5.2404    0.0000 N   0  0
   -5.2112    5.9836    0.0000 C   0  0
   -6.5072    5.2269    0.0000 C   0  0
   -7.8115    5.9678    0.0000 C   0  0
   -9.1053    5.2088    0.0000 C   0  0
   -9.0949    3.7089    0.0000 C   0  0
  -10.3879    2.9468    0.0000 C   0  0
  -11.6934    3.6855    0.0000 N   0  0
  -10.3754    1.4469    0.0000 O   0  0
   -7.7907    2.9679    0.0000 C   0  0
   -6.4969    3.7269    0.0000 C   0  0
   -3.9021    3.7404    0.0000 C   0  0
   -2.6005    2.9949    0.0000 C   0  0
   -1.2990    0.7500    0.0000 N   0  0
   -1.2990   -0.7500    0.0000 C   0  0
   -2.4133   -1.7530    0.0000 C   0  0
   -1.8032   -3.1233    0.0000 C   0  0
   -0.3114   -2.9665    0.0000 N   0  0
    0.0000   -1.5000    0.0000 C   0  0
  1  2  1  0
  2  3  2  0
  3  4  1  0
  4  5  1  0
  5  6  3  0
  4  7  2  0
  7  8  1  0
  8  9  1  0
  8 10  2  0
 10  2  1  0
 10 11  1  0
 11 12  1  0
 12 13  2  0
 13 14  1  0
 14 15  1  0
 15 16  1  0
 16 17  1  0
 17 18  1  0
 18 19  1  0
 19 20  1  0
 20 21  1  0
 21 22  2  0
 22 23  1  0
 23 24  2  0
 24 25  1  0
 25 26  1  0
 25 27  2  0
 24 28  1  0
 28 29  2  0
 29 21  1  0
 19 30  1  0
 30 31  1  0
 31 16  1  0
 14 32  2  0
 32 33  1  0
 33 34  1  0
 34 35  2  0
 35 36  1  0
 36 37  1  0
 37 12  1  0
 37 33  2  0
M  END
> <Smiles>
Cc1cc(C#N)cc(C)c1Oc1nc(NC2CCN(Cc3ccc(C(N)=O)cc3)CC2)nc2cc[nH]c12

> <IC50_uM>
0.00572

> <pIC50>
8.242603971

> <Activity>
1

$$$$

  SciTegic10102310092D

 34 37  0  0  0  0            999 V2000
    2.5981   -1.5000    0.0000 C   0  0
    1.2990   -0.7500    0.0000 C   0  0
    1.2990    0.7500    0.0000 C   0  0
    0.0000    1.5000    0.0000 C   0  0
    0.0000    3.0008    0.0000 C   0  0
    0.0000    4.5008    0.0000 N   0  0
   -1.2990    0.7500    0.0000 C   0  0
   -1.2990   -0.7500    0.0000 C   0  0
   -2.5981   -1.5000    0.0000 F   0  0
    0.0000   -1.5000    0.0000 C   0  0
    0.0031   -3.0008    0.0000 O   0  0
    1.3039   -3.7494    0.0000 C   0  0
    2.6005   -2.9949    0.0000 N   0  0
    3.9021   -3.7404    0.0000 C   0  0
    5.2008   -2.9882    0.0000 N   0  0
    6.5021   -3.7360    0.0000 C   0  0
    7.8012   -2.9860    0.0000 C   0  0
    9.1002   -3.7360    0.0000 C   0  0
    9.1002   -5.2360    0.0000 N   0  0
   10.3999   -5.9864    0.0000 C   0  0
   11.7002   -5.2385    0.0000 C   0  0
   12.9981   -5.9906    0.0000 C   0  0
   12.9957   -7.4906    0.0000 C   0  0
   11.6954   -8.2385    0.0000 C   0  0
   11.6900   -9.7394    0.0000 C   0  0
   12.9865  -10.4937    0.0000 N   0  0
   10.3887  -10.4854    0.0000 O   0  0
   10.3976   -7.4865    0.0000 C   0  0
    7.8012   -5.9860    0.0000 C   0  0
    6.5021   -5.2360    0.0000 C   0  0
    3.9073   -5.2404    0.0000 N   0  0
    2.6108   -5.9949    0.0000 C   0  0
    1.3092   -5.2494    0.0000 C   0  0
    0.0128   -6.0039    0.0000 Br  0  0
  1  2  1  0
  2  3  2  0
  3  4  1  0
  4  5  1  0
  5  6  3  0
  4  7  2  0
  7  8  1  0
  8  9  1  0
  8 10  2  0
 10  2  1  0
 10 11  1  0
 11 12  1  0
 12 13  2  0
 13 14  1  0
 14 15  1  0
 15 16  1  0
 16 17  1  0
 17 18  1  0
 18 19  1  0
 19 20  1  0
 20 21  2  0
 21 22  1  0
 22 23  2  0
 23 24  1  0
 24 25  1  0
 25 26  1  0
 25 27  2  0
 24 28  2  0
 28 20  1  0
 19 29  1  0
 29 30  1  0
 30 16  1  0
 14 31  2  0
 31 32  1  0
 32 33  2  0
 33 12  1  0
 33 34  1  0
M  END
> <Smiles>
Cc1cc(C#N)cc(F)c1Oc1nc(NC2CCN(c3cccc(C(N)=O)c3)CC2)ncc1Br

> <IC50_uM>
0.006

> <pIC50>
8.22184875

> <Activity>
1

$$$$

  SciTegic10102310092D

 26 27  0  0  0  0            999 V2000
    3.8983   -0.7566    0.0000 C   0  0
    2.5973   -1.5031    0.0000 C   0  0
    1.2990   -0.7500    0.0000 C   0  0
    1.2990    0.7500    0.0000 C   0  0
    2.5981    1.5000    0.0000 C   0  0
    0.0000    1.5000    0.0000 N   0  0
   -1.2990    0.7500    0.0000 C   0  0
   -2.5981    1.5000    0.0000 O   0  0
   -1.2990   -0.7500    0.0000 C   0  0
   -2.5972   -1.5031    0.0000 N   0  0
   -3.8976   -0.7554    0.0000 C   0  0
   -2.5951   -3.0039    0.0000 C   0  0  3  0  0  0
   -1.2948   -3.7517    0.0000 C   0  0
   -3.8933   -3.7570    0.0000 C   0  0
   -3.8912   -5.2578    0.0000 O   0  0
   -5.1887   -6.0105    0.0000 C   0  0
    0.0000   -1.5000    0.0000 C   0  0
    0.0031   -3.0008    0.0000 C   0  0
    1.3039   -3.7494    0.0000 C   0  0
    1.3092   -5.2494    0.0000 C   0  0
    2.6108   -5.9949    0.0000 C   0  0
    2.6160   -7.4949    0.0000 C   0  0
    3.9073   -5.2404    0.0000 C   0  0
    3.9021   -3.7404    0.0000 C   0  0
    5.1985   -2.9859    0.0000 C   0  0
    2.6004   -2.9949    0.0000 C   0  0
  1  2  1  0
  2  3  1  0
  3  4  2  0
  4  5  1  0
  4  6  1  0
  6  7  1  0
  7  8  2  0
  7  9  1  0
  9 10  1  0
 10 11  1  0
 10 12  1  0
 12 13  1  4
 12 14  1  0
 14 15  1  0
 15 16  1  0
  9 17  2  0
 17  3  1  0
 17 18  1  0
 18 19  1  0
 19 20  2  0
 20 21  1  0
 21 22  1  0
 21 23  2  0
 23 24  1  0
 24 25  1  0
 24 26  2  0
 26 19  1  0
M  END
> <Smiles>
CCc1c(C)[nH]c(=O)c(N(C)C(C)COC)c1Cc1cc(C)cc(C)c1

> <IC50_uM>
0.006

> <pIC50>
8.22184875

> <Activity>
1

$$$$

  SciTegic10102310092D

 28 30  0  0  0  0            999 V2000
    2.5981   -1.5000    0.0000 C   0  0
    1.2990   -0.7500    0.0000 C   0  0
    1.2990    0.7500    0.0000 N   0  0
    0.0000    1.5000    0.0000 C   0  0
    0.0000    3.0000    0.0000 O   0  0
   -1.2990    0.7500    0.0000 C   0  0
   -2.5981    1.5000    0.0000 Cl  0  0
   -1.2990   -0.7500    0.0000 C   0  0
   -2.5972   -1.5031    0.0000 O   0  0
   -2.5951   -3.0039    0.0000 C   0  0
   -3.8915   -3.7585    0.0000 C   0  0
   -3.8863   -5.2585    0.0000 C   0  0
   -5.1828   -6.0130    0.0000 Cl  0  0
   -2.5847   -6.0040    0.0000 C   0  0
   -1.2883   -5.2495    0.0000 C   0  0
    0.0141   -5.9954    0.0000 C   0  0
    1.3157   -6.7409    0.0000 N   0  0
   -1.2935   -3.7495    0.0000 C   0  0
    0.0000   -1.5000    0.0000 C   0  0
    0.0031   -3.0008    0.0000 C   0  0
    1.3039   -3.7494    0.0000 C   0  0
    1.3070   -5.2502    0.0000 O   0  0
    2.6078   -5.9988    0.0000 C   0  0
    2.6131   -7.4988    0.0000 C   0  0
    3.9147   -8.2443    0.0000 C   0  0
    5.2112   -7.4898    0.0000 C   0  0
    5.2060   -5.9898    0.0000 C   0  0
    3.9044   -5.2443    0.0000 C   0  0
  1  2  1  0
  2  3  1  0
  3  4  1  0
  4  5  2  0
  4  6  1  0
  6  7  1  0
  6  8  2  0
  8  9  1  0
  9 10  1  0
 10 11  2  0
 11 12  1  0
 12 13  1  0
 12 14  2  0
 14 15  1  0
 15 16  1  0
 16 17  3  0
 15 18  2  0
 18 10  1  0
  8 19  1  0
 19  2  2  0
 19 20  1  0
 20 21  1  0
 21 22  1  0
 22 23  1  0
 23 24  2  0
 24 25  1  0
 25 26  2  0
 26 27  1  0
 27 28  2  0
 28 23  1  0
M  END
> <Smiles>
Cc1[nH]c(=O)c(Cl)c(Oc2cc(Cl)cc(C#N)c2)c1CCOc1ccccc1

> <IC50_uM>
0.006

> <pIC50>
8.22184875

> <Activity>
1

$$$$

  SciTegic10102310092D

 23 24  0  0  0  0            999 V2000
    3.9075   -3.7444    0.0000 C   0  0
    2.6060   -2.9986    0.0000 C   0  0
    2.6003   -1.4977    0.0000 C   0  0  3  0  0  0
    1.2990   -0.7500    0.0000 C   0  0
    1.2990    0.7500    0.0000 N   0  0
    0.0000    1.5000    0.0000 C   0  0
   -0.0031    3.0008    0.0000 S   0  0
   -1.3039    3.7494    0.0000 C   0  0
   -1.3070    5.2494    0.0000 C   0  0
   -2.6017    2.9971    0.0000 C   0  0
   -1.2990    0.7500    0.0000 N   0  0
   -1.2990   -0.7500    0.0000 C   0  0
   -2.5981   -1.5000    0.0000 O   0  0
    0.0000   -1.5000    0.0000 C   0  0
    0.0000   -3.0000    0.0000 C   0  0
    3.8990   -0.7455    0.0000 C   0  0
    5.2007   -1.4909    0.0000 C   0  0
    5.2060   -2.9909    0.0000 F   0  0
    6.4972   -0.7364    0.0000 C   0  0
    6.4920    0.7636    0.0000 C   0  0
    5.1903    1.5091    0.0000 C   0  0
    3.8939    0.7546    0.0000 C   0  0
    2.5923    1.5001    0.0000 Cl  0  0
  1  2  1  0
  3  2  1  4
  3  4  1  0
  4  5  1  0
  5  6  2  0
  6  7  1  0
  7  8  1  0
  8  9  1  0
  8 10  1  0
  6 11  1  0
 11 12  1  0
 12 13  2  0
 12 14  1  0
 14  4  2  0
 14 15  1  0
  3 16  1  0
 16 17  2  0
 17 18  1  0
 17 19  1  0
 19 20  2  0
 20 21  1  0
 21 22  2  0
 22 16  1  0
 22 23  1  0
M  END
> <Smiles>
CCC(c1nc(SC(C)C)[nH]c(=O)c1C)c1c(F)cccc1Cl

> <IC50_uM>
0.006

> <pIC50>
8.22184875

> <Activity>
1

$$$$

  SciTegic10102310092D

 34 37  0  0  0  0            999 V2000
    2.5981   -1.5000    0.0000 C   0  0
    1.2990   -0.7500    0.0000 C   0  0
    1.2990    0.7500    0.0000 C   0  0
    0.0000    1.5000    0.0000 N   0  0
   -1.2990    0.7500    0.0000 C   0  0
   -2.6003    1.4977    0.0000 N   0  0
   -3.8990    0.7455    0.0000 C   0  0
   -5.2007    1.4909    0.0000 C   0  0
   -6.4972    0.7364    0.0000 C   0  0
   -6.4920   -0.7636    0.0000 N   0  0
   -7.7890   -1.5185    0.0000 C   0  0
   -9.0920   -0.7751    0.0000 C   0  0
  -10.3872   -1.5316    0.0000 C   0  0
  -10.3796   -3.0316    0.0000 C   0  0
   -9.0768   -3.7750    0.0000 C   0  0
   -9.0661   -5.2758    0.0000 C   0  0
  -10.3601   -6.0346    0.0000 N   0  0
   -7.7623   -6.0174    0.0000 O   0  0
   -7.7816   -3.0185    0.0000 C   0  0
   -5.1903   -1.5091    0.0000 C   0  0
   -3.8939   -0.7546    0.0000 C   0  0
   -1.2990   -0.7500    0.0000 N   0  0
    0.0000   -1.5000    0.0000 C   0  0
   -0.0031   -3.0008    0.0000 O   0  0
   -1.3039   -3.7494    0.0000 C   0  0
   -1.3092   -5.2494    0.0000 C   0  0
   -0.0128   -6.0039    0.0000 C   0  0
   -2.6108   -5.9949    0.0000 C   0  0
   -3.9072   -5.2404    0.0000 C   0  0
   -5.2096   -5.9864    0.0000 C   0  0
   -6.5112   -6.7319    0.0000 N   0  0
   -3.9020   -3.7404    0.0000 C   0  0
   -2.6004   -2.9949    0.0000 C   0  0
   -2.5953   -1.4949    0.0000 Cl  0  0
  1  2  1  0
  2  3  2  0
  3  4  1  0
  4  5  2  0
  5  6  1  0
  6  7  1  0
  7  8  1  0
  8  9  1  0
  9 10  1  0
 10 11  1  0
 11 12  2  0
 12 13  1  0
 13 14  2  0
 14 15  1  0
 15 16  1  0
 16 17  1  0
 16 18  2  0
 15 19  2  0
 19 11  1  0
 10 20  1  0
 20 21  1  0
 21  7  1  0
  5 22  1  0
 22 23  2  0
 23  2  1  0
 23 24  1  0
 24 25  1  0
 25 26  2  0
 26 27  1  0
 26 28  1  0
 28 29  2  0
 29 30  1  0
 30 31  3  0
 29 32  1  0
 32 33  2  0
 33 25  1  0
 33 34  1  0
M  END
> <Smiles>
Cc1cnc(NC2CCN(c3cccc(C(N)=O)c3)CC2)nc1Oc1c(C)cc(C#N)cc1Cl

> <IC50_uM>
0.006

> <pIC50>
8.22184875

> <Activity>
1

$$$$

  SciTegic10102310092D

 38 42  0  0  0  0            999 V2000
    2.5923    1.5001    0.0000 C   0  0
    3.8939    0.7546    0.0000 C   0  0
    5.1903    1.5091    0.0000 C   0  0
    6.4920    0.7636    0.0000 C   0  0
    7.7907    1.5158    0.0000 C   0  0
    9.0920    0.7680    0.0000 C   0  0
   10.3907    1.5203    0.0000 C   0  0
   11.6886    2.2721    0.0000 N   0  0
    6.4972   -0.7364    0.0000 C   0  0
    5.2007   -1.4909    0.0000 C   0  0
    5.2059   -2.9909    0.0000 C   0  0
    3.8990   -0.7455    0.0000 C   0  0
    2.6003   -1.4977    0.0000 O   0  0
    1.2990   -0.7500    0.0000 C   0  0
    1.2990    0.7500    0.0000 N   0  0
    0.0000    1.5000    0.0000 C   0  0
   -0.0031    3.0008    0.0000 N   0  0
   -1.3039    3.7494    0.0000 C   0  0
   -1.3092    5.2494    0.0000 C   0  0
   -2.6108    5.9949    0.0000 C   0  0
   -3.9073    5.2404    0.0000 N   0  0
   -5.2112    5.9836    0.0000 C   0  0
   -6.5072    5.2269    0.0000 C   0  0
   -7.8115    5.9678    0.0000 C   0  0
   -9.1053    5.2088    0.0000 C   0  0
   -9.0949    3.7089    0.0000 C   0  0
   -7.7907    2.9679    0.0000 C   0  0
   -7.7803    1.4671    0.0000 C   0  0
   -7.7700   -0.0329    0.0000 N   0  0
   -6.4969    3.7269    0.0000 C   0  0
   -3.9021    3.7404    0.0000 C   0  0
   -2.6005    2.9949    0.0000 C   0  0
   -1.2990    0.7500    0.0000 N   0  0
   -1.2990   -0.7500    0.0000 C   0  0
   -2.4133   -1.7530    0.0000 C   0  0
   -1.8032   -3.1233    0.0000 C   0  0
   -0.3114   -2.9665    0.0000 S   0  0
    0.0000   -1.5000    0.0000 C   0  0
  1  2  1  0
  2  3  2  0
  3  4  1  0
  4  5  1  0
  5  6  2  0
  6  7  1  0
  7  8  3  0
  4  9  2  0
  9 10  1  0
 10 11  1  0
 10 12  2  0
 12  2  1  0
 12 13  1  0
 13 14  1  0
 14 15  2  0
 15 16  1  0
 16 17  1  0
 17 18  1  0
 18 19  1  0
 19 20  1  0
 20 21  1  0
 21 22  1  0
 22 23  1  0
 23 24  2  0
 24 25  1  0
 25 26  2  0
 26 27  1  0
 27 28  1  0
 28 29  3  0
 27 30  2  0
 30 23  1  0
 21 31  1  0
 31 32  1  0
 32 18  1  0
 16 33  2  0
 33 34  1  0
 34 35  1  0
 35 36  2  0
 36 37  1  0
 37 38  1  0
 38 14  1  0
 38 34  2  0
M  END
> <Smiles>
Cc1cc(/C=C/C#N)cc(C)c1Oc1nc(NC2CCN(Cc3cccc(C#N)c3)CC2)nc2ccsc12

> <IC50_uM>
0.00602

> <pIC50>
8.220403509

> <Activity>
1

$$$$

  SciTegic10102310092D

 34 36  0  0  0  0            999 V2000
    2.5981   -1.5000    0.0000 C   0  0
    1.2990   -0.7500    0.0000 C   0  0
    1.2990    0.7500    0.0000 C   0  0
    0.0000    1.5000    0.0000 C   0  0
    0.0000    3.0008    0.0000 C   0  0
    0.0000    4.5008    0.0000 N   0  0
   -1.2990    0.7500    0.0000 C   0  0
   -1.2990   -0.7500    0.0000 C   0  0
   -2.5972   -1.5031    0.0000 C   0  0
   -3.8976   -0.7554    0.0000 O   0  0
   -2.5951   -3.0039    0.0000 C   0  0
   -1.2935   -3.7495    0.0000 C   0  0
   -1.2883   -5.2495    0.0000 C   0  0
    0.0134   -5.9950    0.0000 Cl  0  0
   -2.5847   -6.0040    0.0000 C   0  0
   -3.8863   -5.2585    0.0000 C   0  0
   -3.8915   -3.7585    0.0000 C   0  0
   -5.1954   -3.0153    0.0000 O   0  0
   -6.4915   -3.7721    0.0000 C   0  0
   -7.7954   -3.0289    0.0000 C   0  0
   -7.8032   -1.5289    0.0000 O   0  0
   -9.0914   -3.7857    0.0000 N   0  0
  -10.3953   -3.0425    0.0000 C   0  0
  -10.4007   -1.5425    0.0000 C   0  0
  -11.7023   -0.7971    0.0000 C   0  0
  -12.9987   -1.5516    0.0000 C   0  0
  -14.3011   -0.8058    0.0000 S   0  0
  -15.5973   -1.5608    0.0000 N   0  0
  -14.3073    0.6942    0.0000 O   0  0
  -15.6031   -0.0610    0.0000 O   0  0
  -12.9934   -3.0516    0.0000 N   0  0
  -11.6918   -3.7970    0.0000 C   0  0
  -11.6865   -5.2970    0.0000 C   0  0
    0.0000   -1.5000    0.0000 C   0  0
  1  2  1  0
  2  3  2  0
  3  4  1  0
  4  5  1  0
  5  6  3  0
  4  7  2  0
  7  8  1  0
  8  9  1  0
  9 10  2  0
  9 11  1  0
 11 12  2  0
 12 13  1  0
 13 14  1  0
 13 15  2  0
 15 16  1  0
 16 17  2  0
 17 11  1  0
 17 18  1  0
 18 19  1  0
 19 20  1  0
 20 21  2  0
 20 22  1  0
 22 23  1  0
 23 24  2  0
 24 25  1  0
 25 26  2  0
 26 27  1  0
 27 28  1  0
 27 29  2  0
 27 30  2  0
 26 31  1  0
 31 32  2  0
 32 23  1  0
 32 33  1  0
  8 34  2  0
 34  2  1  0
M  END
> <Smiles>
Cc1cc(C#N)cc(C(=O)c2cc(Cl)ccc2OCC(=O)Nc2ccc(S(N)(=O)=O)nc2C)c1

> <IC50_uM>
0.006026

> <pIC50>
8.219970873

> <Activity>
1

$$$$

  SciTegic10102310092D

 38 40  0  0  0  0            999 V2000
    2.5981   -1.5000    0.0000 C   0  0
    1.2990   -0.7500    0.0000 C   0  0
    1.2990    0.7500    0.0000 C   0  0
    0.0000    1.5000    0.0000 C   0  0
    0.0000    3.0008    0.0000 S   0  0
   -1.2993    3.7504    0.0000 O   0  0
   -0.0007    4.5008    0.0000 O   0  0
    1.2993    3.7521    0.0000 N   0  0
    1.2992    5.2521    0.0000 C   0  0
    2.5985    3.0025    0.0000 C   0  0
   -1.2990    0.7500    0.0000 C   0  0
   -1.2990   -0.7500    0.0000 C   0  0
    0.0000   -1.5000    0.0000 C   0  0
   -0.0031   -3.0008    0.0000 N   0  0
   -1.3039   -3.7494    0.0000 C   0  0
   -2.6016   -2.9971    0.0000 O   0  0
   -1.3070   -5.2502    0.0000 C   0  0
   -2.6078   -5.9988    0.0000 O   0  0
   -2.6109   -7.4996    0.0000 C   0  0
   -1.3118   -8.2497    0.0000 C   0  0
   -1.3119   -9.7497    0.0000 C   0  0
   -2.6109  -10.4997    0.0000 C   0  0
   -2.6110  -11.9997    0.0000 Cl  0  0
   -3.9100   -9.7497    0.0000 C   0  0
   -3.9099   -8.2497    0.0000 C   0  0
   -5.2112   -7.5019    0.0000 C   0  0
   -5.2139   -6.0019    0.0000 O   0  0
   -6.5099   -8.2542    0.0000 C   0  0
   -7.8116   -7.5088    0.0000 C   0  0
   -9.1080   -8.2633    0.0000 C   0  0
  -10.4097   -7.5178    0.0000 F   0  0
   -9.1028   -9.7633    0.0000 C   0  0
   -7.8012  -10.5088    0.0000 C   0  0
   -7.7960  -12.0096    0.0000 C   0  0
   -9.0919  -12.7649    0.0000 F   0  0
   -6.4941  -12.7547    0.0000 F   0  0
   -7.7901  -13.5096    0.0000 F   0  0
   -6.5048   -9.7543    0.0000 C   0  0
  1  2  1  0
  2  3  2  0
  3  4  1  0
  4  5  1  0
  5  6  2  0
  5  7  2  0
  5  8  1  0
  8  9  1  0
  8 10  1  0
  4 11  2  0
 11 12  1  0
 12 13  2  0
 13  2  1  0
 13 14  1  0
 14 15  1  0
 15 16  2  0
 15 17  1  0
 17 18  1  0
 18 19  1  0
 19 20  2  0
 20 21  1  0
 21 22  2  0
 22 23  1  0
 22 24  1  0
 24 25  2  0
 25 19  1  0
 25 26  1  0
 26 27  2  0
 26 28  1  0
 28 29  2  0
 29 30  1  0
 30 31  1  0
 30 32  2  0
 32 33  1  0
 33 34  1  0
 34 35  1  0
 34 36  1  0
 34 37  1  0
 33 38  2  0
 38 28  1  0
M  END
> <Smiles>
Cc1cc(S(=O)(=O)N(C)C)ccc1NC(=O)COc1ccc(Cl)cc1C(=O)c1cc(F)cc(C(F)(F)F)c1

> <IC50_uM>
0.006026

> <pIC50>
8.219970873

> <Activity>
1

$$$$

  SciTegic10102310092D

 36 40  0  0  0  0            999 V2000
    2.5923    1.5001    0.0000 C   0  0
    3.8939    0.7546    0.0000 C   0  0
    5.1903    1.5091    0.0000 C   0  0
    6.4920    0.7636    0.0000 C   0  0
    7.7891    1.5185    0.0000 C   0  0
    9.0856    2.2729    0.0000 N   0  0
    6.4972   -0.7364    0.0000 C   0  0
    5.2007   -1.4909    0.0000 C   0  0
    5.2059   -2.9909    0.0000 C   0  0
    3.8990   -0.7455    0.0000 C   0  0
    2.6003   -1.4977    0.0000 O   0  0
    1.2990   -0.7500    0.0000 C   0  0
    1.2990    0.7500    0.0000 N   0  0
    0.0000    1.5000    0.0000 C   0  0
   -0.0031    3.0008    0.0000 N   0  0
   -1.3039    3.7494    0.0000 C   0  0
   -1.3092    5.2494    0.0000 C   0  0
   -2.6108    5.9949    0.0000 C   0  0
   -3.9073    5.2404    0.0000 N   0  0
   -5.2112    5.9836    0.0000 C   0  0
   -6.5072    5.2269    0.0000 C   0  0
   -7.8115    5.9678    0.0000 C   0  0
   -9.1053    5.2088    0.0000 C   0  0
  -10.4095    5.9498    0.0000 O   0  0
   -9.0949    3.7089    0.0000 N   0  0
   -7.7907    2.9679    0.0000 C   0  0
   -7.7803    1.4679    0.0000 O   0  0
   -6.4969    3.7269    0.0000 N   0  0
   -3.9021    3.7404    0.0000 C   0  0
   -2.6005    2.9949    0.0000 C   0  0
   -1.2990    0.7500    0.0000 N   0  0
   -1.2990   -0.7500    0.0000 C   0  0
   -2.4133   -1.7530    0.0000 C   0  0
   -1.8032   -3.1233    0.0000 C   0  0
   -0.3114   -2.9665    0.0000 S   0  0
    0.0000   -1.5000    0.0000 C   0  0
  1  2  1  0
  2  3  2  0
  3  4  1  0
  4  5  1  0
  5  6  3  0
  4  7  2  0
  7  8  1  0
  8  9  1  0
  8 10  2  0
 10  2  1  0
 10 11  1  0
 11 12  1  0
 12 13  2  0
 13 14  1  0
 14 15  1  0
 15 16  1  0
 16 17  1  0
 17 18  1  0
 18 19  1  0
 19 20  1  0
 20 21  1  0
 21 22  2  0
 22 23  1  0
 23 24  2  0
 23 25  1  0
 25 26  1  0
 26 27  2  0
 26 28  1  0
 28 21  1  0
 19 29  1  0
 29 30  1  0
 30 16  1  0
 14 31  2  0
 31 32  1  0
 32 33  1  0
 33 34  2  0
 34 35  1  0
 35 36  1  0
 36 12  1  0
 36 32  2  0
M  END
> <Smiles>
Cc1cc(C#N)cc(C)c1Oc1nc(NC2CCN(Cc3cc(=O)[nH]c(=O)[nH]3)CC2)nc2ccsc12

> <IC50_uM>
0.00613

> <pIC50>
8.212539525

> <Activity>
1

$$$$

  SciTegic10102310092D

 33 35  0  0  0  0            999 V2000
    2.5981   -1.5000    0.0000 C   0  0
    1.2990   -0.7500    0.0000 C   0  0
    1.2990    0.7500    0.0000 C   0  0
    0.0000    1.5000    0.0000 C   0  0
    0.0000    3.0008    0.0000 S   0  0
   -1.2993    3.7504    0.0000 N   0  0
    1.2985    3.7517    0.0000 O   0  0
   -0.0007    4.5008    0.0000 O   0  0
   -1.2990    0.7500    0.0000 C   0  0
   -1.2990   -0.7500    0.0000 C   0  0
    0.0000   -1.5000    0.0000 C   0  0
   -0.0031   -3.0008    0.0000 N   0  0
   -1.3039   -3.7494    0.0000 C   0  0
   -2.6016   -2.9971    0.0000 O   0  0
   -1.3070   -5.2502    0.0000 C   0  0
   -2.6078   -5.9988    0.0000 O   0  0
   -2.6109   -7.4996    0.0000 C   0  0
   -1.3118   -8.2497    0.0000 C   0  0
   -1.3119   -9.7497    0.0000 C   0  0
   -2.6109  -10.4997    0.0000 C   0  0
   -2.6110  -11.9997    0.0000 Cl  0  0
   -3.9100   -9.7497    0.0000 C   0  0
   -3.9099   -8.2497    0.0000 C   0  0
   -5.2112   -7.5019    0.0000 C   0  0
   -5.2139   -6.0019    0.0000 O   0  0
   -6.5099   -8.2542    0.0000 C   0  0
   -7.8116   -7.5088    0.0000 C   0  0
   -9.1080   -8.2633    0.0000 C   0  0
  -10.4097   -7.5178    0.0000 Cl  0  0
   -9.1028   -9.7633    0.0000 C   0  0
   -7.8012  -10.5088    0.0000 C   0  0
   -7.7960  -12.0088    0.0000 Br  0  0
   -6.5048   -9.7543    0.0000 C   0  0
  1  2  1  0
  2  3  2  0
  3  4  1  0
  4  5  1  0
  5  6  1  0
  5  7  2  0
  5  8  2  0
  4  9  2  0
  9 10  1  0
 10 11  2  0
 11  2  1  0
 11 12  1  0
 12 13  1  0
 13 14  2  0
 13 15  1  0
 15 16  1  0
 16 17  1  0
 17 18  2  0
 18 19  1  0
 19 20  2  0
 20 21  1  0
 20 22  1  0
 22 23  2  0
 23 17  1  0
 23 24  1  0
 24 25  2  0
 24 26  1  0
 26 27  2  0
 27 28  1  0
 28 29  1  0
 28 30  2  0
 30 31  1  0
 31 32  1  0
 31 33  2  0
 33 26  1  0
M  END
> <Smiles>
Cc1cc(S(N)(=O)=O)ccc1NC(=O)COc1ccc(Cl)cc1C(=O)c1cc(Cl)cc(Br)c1

> <IC50_uM>
0.006166

> <pIC50>
8.20999648

> <Activity>
1

$$$$

  SciTegic10102310092D

 39 43  0  0  0  0            999 V2000
    2.5923    1.5001    0.0000 C   0  0
    3.8939    0.7546    0.0000 C   0  0
    5.1903    1.5091    0.0000 C   0  0
    6.4920    0.7636    0.0000 C   0  0
    7.7907    1.5158    0.0000 C   0  0
    9.0920    0.7680    0.0000 C   0  0
   10.3907    1.5203    0.0000 C   0  0
   11.6886    2.2721    0.0000 N   0  0
    6.4972   -0.7364    0.0000 C   0  0
    5.2007   -1.4909    0.0000 C   0  0
    5.2059   -2.9909    0.0000 C   0  0
    3.8990   -0.7455    0.0000 C   0  0
    2.6003   -1.4977    0.0000 O   0  0
    1.2990   -0.7500    0.0000 C   0  0
    1.2990    0.7500    0.0000 N   0  0
    0.0000    1.5000    0.0000 C   0  0
   -0.0031    3.0008    0.0000 N   0  0
   -1.3039    3.7494    0.0000 C   0  0
   -1.3092    5.2494    0.0000 C   0  0
   -2.6108    5.9949    0.0000 C   0  0
   -3.9073    5.2404    0.0000 N   0  0
   -5.2112    5.9836    0.0000 C   0  0
   -6.5072    5.2269    0.0000 C   0  0
   -7.8115    5.9678    0.0000 C   0  0
   -9.1053    5.2088    0.0000 C   0  0
   -9.0949    3.7089    0.0000 C   0  0
   -7.7907    2.9679    0.0000 C   0  0
   -7.7773    1.4671    0.0000 C   0  0
   -9.0697    0.7059    0.0000 N   0  0
   -6.4720    0.7280    0.0000 O   0  0
   -6.4969    3.7269    0.0000 C   0  0
   -3.9021    3.7404    0.0000 C   0  0
   -2.6005    2.9949    0.0000 C   0  0
   -1.2990    0.7500    0.0000 N   0  0
   -1.2990   -0.7500    0.0000 C   0  0
   -2.4133   -1.7530    0.0000 C   0  0
   -1.8032   -3.1233    0.0000 C   0  0
   -0.3114   -2.9665    0.0000 S   0  0
    0.0000   -1.5000    0.0000 C   0  0
  1  2  1  0
  2  3  2  0
  3  4  1  0
  4  5  1  0
  5  6  2  0
  6  7  1  0
  7  8  3  0
  4  9  2  0
  9 10  1  0
 10 11  1  0
 10 12  2  0
 12  2  1  0
 12 13  1  0
 13 14  1  0
 14 15  2  0
 15 16  1  0
 16 17  1  0
 17 18  1  0
 18 19  1  0
 19 20  1  0
 20 21  1  0
 21 22  1  0
 22 23  1  0
 23 24  2  0
 24 25  1  0
 25 26  2  0
 26 27  1  0
 27 28  1  0
 28 29  1  0
 28 30  2  0
 27 31  2  0
 31 23  1  0
 21 32  1  0
 32 33  1  0
 33 18  1  0
 16 34  2  0
 34 35  1  0
 35 36  1  0
 36 37  2  0
 37 38  1  0
 38 39  1  0
 39 14  1  0
 39 35  2  0
M  END
> <Smiles>
Cc1cc(/C=C/C#N)cc(C)c1Oc1nc(NC2CCN(Cc3cccc(C(N)=O)c3)CC2)nc2ccsc12

> <IC50_uM>
0.00628

> <pIC50>
8.202040356

> <Activity>
1

$$$$

  SciTegic10102310092D

 28 31  0  0  0  0            999 V2000
    1.8073   -5.7196    0.0000 O   0  0
    2.5551   -4.4192    0.0000 C   0  0
    4.0559   -4.4171    0.0000 N   0  0
    4.8090   -5.7153    0.0000 C   0  0
    6.3098   -5.7131    0.0000 C   0  0
    7.0644   -7.0095    0.0000 C   0  0
    8.5644   -7.0043    0.0000 C   0  0
    9.3099   -5.7027    0.0000 N   0  0
    8.5554   -4.4062    0.0000 C   0  0
    7.0554   -4.4114    0.0000 C   0  0
    1.8032   -3.1233    0.0000 C   0  0
    2.4133   -1.7530    0.0000 N   0  0
    1.2990   -0.7500    0.0000 C   0  0
    1.2990    0.7500    0.0000 C   0  0
    0.0000    1.5000    0.0000 C   0  0
   -1.2990    0.7500    0.0000 C   0  0
   -2.5981    1.5000    0.0000 Br  0  0
   -1.2990   -0.7500    0.0000 C   0  0
    0.0000   -1.5000    0.0000 C   0  0
    0.3114   -2.9665    0.0000 C   0  0
   -0.6913   -4.0797    0.0000 S   0  0
   -0.2276   -5.5062    0.0000 O   0  0
    0.7759   -4.3916    0.0000 O   0  0
   -2.1595   -3.7683    0.0000 N   0  0
   -3.2523   -4.7770    0.0000 C   0  0
   -4.5516   -4.0276    0.0000 C   0  0
   -4.2404   -2.5602    0.0000 C   0  0
   -2.7487   -2.4028    0.0000 C   0  0
  1  2  2  0
  2  3  1  0
  3  4  1  0
  4  5  1  0
  5  6  2  0
  6  7  1  0
  7  8  2  0
  8  9  1  0
  9 10  2  0
 10  5  1  0
  2 11  1  0
 11 12  1  0
 12 13  1  0
 13 14  2  0
 14 15  1  0
 15 16  2  0
 16 17  1  0
 16 18  1  0
 18 19  2  0
 19 13  1  0
 19 20  1  0
 20 11  2  0
 20 21  1  0
 21 22  2  0
 21 23  2  0
 21 24  1  0
 24 25  1  0
 25 26  1  0
 26 27  1  0
 27 28  1  0
 28 24  1  0
M  END
> <Smiles>
O=C(NCc1ccncc1)c1[nH]c2ccc(Br)cc2c1S(=O)(=O)N1CCCC1

> <IC50_uM>
0.0063

> <pIC50>
8.200659451

> <Activity>
1

$$$$

  SciTegic10102310092D

 24 26  0  0  0  0            999 V2000
    1.8073   -5.7196    0.0000 O   0  0
    2.5551   -4.4192    0.0000 C   0  0
    4.0559   -4.4171    0.0000 N   0  0
    4.8090   -5.7153    0.0000 C   0  0
    6.3098   -5.7131    0.0000 C   0  0
    7.0625   -7.0106    0.0000 O   0  0
    1.8032   -3.1233    0.0000 C   0  0
    2.4133   -1.7530    0.0000 N   0  0
    1.2990   -0.7500    0.0000 C   0  0
    1.2990    0.7500    0.0000 C   0  0
    0.0000    1.5000    0.0000 C   0  0
   -1.2990    0.7500    0.0000 C   0  0
   -2.5981    1.5000    0.0000 Br  0  0
   -1.2990   -0.7500    0.0000 C   0  0
    0.0000   -1.5000    0.0000 C   0  0
    0.3114   -2.9665    0.0000 C   0  0
   -0.6913   -4.0797    0.0000 S   0  0
   -0.2276   -5.5062    0.0000 O   0  0
    0.7759   -4.3916    0.0000 O   0  0
   -2.1595   -3.7683    0.0000 N   0  0
   -3.2523   -4.7770    0.0000 C   0  0
   -4.5516   -4.0276    0.0000 C   0  0
   -4.2404   -2.5602    0.0000 C   0  0
   -2.7487   -2.4028    0.0000 C   0  0
  1  2  2  0
  2  3  1  0
  3  4  1  0
  4  5  1  0
  5  6  1  0
  2  7  1  0
  7  8  1  0
  8  9  1  0
  9 10  2  0
 10 11  1  0
 11 12  2  0
 12 13  1  0
 12 14  1  0
 14 15  2  0
 15  9  1  0
 15 16  1  0
 16  7  2  0
 16 17  1  0
 17 18  2  0
 17 19  2  0
 17 20  1  0
 20 21  1  0
 21 22  1  0
 22 23  1  0
 23 24  1  0
 24 20  1  0
M  END
> <Smiles>
O=C(NCCO)c1[nH]c2ccc(Br)cc2c1S(=O)(=O)N1CCCC1

> <IC50_uM>
0.0069

> <pIC50>
8.161150909

> <Activity>
1

$$$$

  SciTegic10102310092D

 27 29  0  0  0  0            999 V2000
    3.8978   -2.2504    0.0000 N   0  0
    2.5988   -1.5004    0.0000 C   0  0
    1.2990   -0.7500    0.0000 C   0  0
    1.2990    0.7500    0.0000 C   0  0
    0.0000    1.5000    0.0000 C   0  0
    0.0000    3.0000    0.0000 Cl  0  0
   -1.2990    0.7500    0.0000 C   0  0
   -1.2990   -0.7500    0.0000 C   0  0
   -2.5972   -1.5031    0.0000 O   0  0
   -2.5951   -3.0039    0.0000 C   0  0
   -1.2935   -3.7495    0.0000 C   0  0
   -1.2883   -5.2495    0.0000 C   0  0
    0.0125   -5.9981    0.0000 C   0  0
    0.0156   -7.4989    0.0000 C   0  0
    1.3164   -8.2475    0.0000 C   0  0
    1.3216   -9.7475    0.0000 C   0  0
    2.6232  -10.4931    0.0000 C   0  0
    3.9197   -9.7386    0.0000 C   0  0
    3.9145   -8.2386    0.0000 C   0  0
    5.2110   -7.4842    0.0000 Cl  0  0
    2.6129   -7.4931    0.0000 C   0  0
   -2.5847   -6.0040    0.0000 N   0  0
   -3.8863   -5.2585    0.0000 C   0  0
   -5.1828   -6.0130    0.0000 O   0  0
   -3.8915   -3.7585    0.0000 C   0  0
   -5.1932   -3.0130    0.0000 Cl  0  0
    0.0000   -1.5000    0.0000 C   0  0
  1  2  3  0
  2  3  1  0
  3  4  2  0
  4  5  1  0
  5  6  1  0
  5  7  2  0
  7  8  1  0
  8  9  1  0
  9 10  1  0
 10 11  1  0
 11 12  2  0
 12 13  1  0
 13 14  1  0
 14 15  1  0
 15 16  2  0
 16 17  1  0
 17 18  2  0
 18 19  1  0
 19 20  1  0
 19 21  2  0
 21 15  1  0
 12 22  1  0
 22 23  1  0
 23 24  2  0
 23 25  1  0
 25 10  2  0
 25 26  1  0
  8 27  2  0
 27  3  1  0
M  END
> <Smiles>
N#Cc1cc(Cl)cc(Oc2cc(CCc3cccc(Cl)c3)[nH]c(=O)c2Cl)c1

> <IC50_uM>
0.007

> <pIC50>
8.15490196

> <Activity>
1

$$$$

  SciTegic10102310092D

 23 25  0  0  0  0            999 V2000
    7.0441   -7.0185    0.0000 C   0  0
    6.2959   -8.3185    0.0000 C   0  0
    4.7951   -8.3215    0.0000 C   0  0
    4.0452   -7.0225    0.0000 C   0  0
    2.5451   -7.0223    0.0000 C   0  0
    1.7974   -5.7210    0.0000 N   0  0
    2.5497   -4.4224    0.0000 C   0  0
    1.8032   -3.1233    0.0000 C   0  0
    2.4133   -1.7530    0.0000 N   0  0
    1.2990   -0.7500    0.0000 C   0  0
    1.2990    0.7500    0.0000 C   0  0
    2.5981    1.5000    0.0000 Cl  0  0
    0.0000    1.5000    0.0000 C   0  0
   -1.2990    0.7500    0.0000 C   0  0
   -1.2990   -0.7500    0.0000 C   0  0
   -2.5981   -1.5000    0.0000 Cl  0  0
    0.0000   -1.5000    0.0000 C   0  0
    0.3114   -2.9665    0.0000 O   0  0
    1.7951   -8.3214    0.0000 C   0  0
    0.2951   -8.3214    0.0000 O   0  0
    2.5450   -9.6205    0.0000 N   0  0
    4.0450   -9.6205    0.0000 C   0  0
    4.7950  -10.9196    0.0000 C   0  0
  1  2  1  0
  2  3  1  0
  3  4  2  0
  4  5  1  0
  5  6  1  0
  6  7  1  0
  7  8  1  0
  8  9  2  0
  9 10  1  0
 10 11  2  0
 11 12  1  0
 11 13  1  0
 13 14  2  0
 14 15  1  0
 15 16  1  0
 15 17  2  0
 17 10  1  0
 17 18  1  0
 18  8  1  0
  5 19  2  0
 19 20  1  0
 19 21  1  0
 21 22  2  0
 22  3  1  0
 22 23  1  0
M  END
> <Smiles>
CCc1cc(NCc2nc3c(Cl)ccc(Cl)c3o2)c(O)nc1C

> <IC50_uM>
0.007

> <pIC50>
8.15490196

> <Activity>
1

$$$$

  SciTegic10102310092D

 28 30  0  0  0  0            999 V2000
   14.2855    2.2820    0.0000 N   0  0
   12.9891    1.5275    0.0000 C   0  0
   11.6919    0.7726    0.0000 C   0  0
   10.3903    1.5181    0.0000 C   0  0
    9.0939    0.7636    0.0000 C   0  0
    9.0990   -0.7364    0.0000 C   0  0
    7.8003   -1.4887    0.0000 N   0  0
    6.4990   -0.7409    0.0000 C   0  0
    6.4964    0.7591    0.0000 O   0  0
    5.2003   -1.4932    0.0000 C   0  0
    3.8990   -0.7455    0.0000 S   0  0
    2.6003   -1.4977    0.0000 C   0  0
    2.6030   -2.9977    0.0000 O   0  0
    1.2990   -0.7500    0.0000 N   0  0
    1.2990    0.7500    0.0000 C   0  0
    0.0000    1.5000    0.0000 C   0  0
   -1.2990    0.7500    0.0000 C   0  0
   -1.2990   -0.7500    0.0000 C   0  0
   -2.5981   -1.5000    0.0000 C   0  0
   -2.5981   -3.0000    0.0000 C   0  0
   -3.8971   -3.7500    0.0000 Cl  0  0
   -1.2990   -3.7500    0.0000 C   0  0
    0.0000   -3.0000    0.0000 C   0  0
    1.2991   -3.7500    0.0000 Cl  0  0
    0.0000   -1.5000    0.0000 C   0  0
   10.4007   -1.4818    0.0000 C   0  0
   10.4059   -2.9818    0.0000 Cl  0  0
   11.6971   -0.7274    0.0000 C   0  0
  1  2  3  0
  2  3  1  0
  3  4  2  0
  4  5  1  0
  5  6  2  0
  6  7  1  0
  7  8  1  0
  8  9  2  0
  8 10  1  0
 10 11  1  0
 11 12  1  0
 12 13  2  0
 12 14  1  0
 14 15  1  0
 15 16  1  0
 16 17  1  0
 17 18  1  0
 18 19  2  0
 19 20  1  0
 20 21  1  0
 20 22  2  0
 22 23  1  0
 23 24  1  0
 23 25  2  0
 25 18  1  0
 25 14  1  0
  6 26  1  0
 26 27  1  0
 26 28  2  0
 28  3  1  0
M  END
> <Smiles>
N#Cc1ccc(NC(=O)CSC(=O)N2CCCc3cc(Cl)cc(Cl)c32)c(Cl)c1

> <IC50_uM>
0.007

> <pIC50>
8.15490196

> <Activity>
1

$$$$

  SciTegic10102310092D

 31 34  0  0  0  0            999 V2000
    3.8805   -1.4410    0.0000 O   0  0
    2.4133   -1.7530    0.0000 C   0  0
    1.2990   -0.7500    0.0000 C   0  0
    1.2990    0.7500    0.0000 C   0  0
    0.0000    1.5000    0.0000 C   0  0
   -1.2990    0.7500    0.0000 C   0  0
   -1.2990   -0.7500    0.0000 C   0  0
    0.0000   -1.5000    0.0000 C   0  0
    0.3114   -2.9665    0.0000 C   0  0
   -0.6923   -4.0811    0.0000 O   0  0
    1.8032   -3.1233    0.0000 N   0  0
    2.5551   -4.4192    0.0000 C   0  0
    4.0559   -4.4171    0.0000 C   0  0
    4.8090   -5.7153    0.0000 O   0  0
    6.3098   -5.7131    0.0000 C   0  0
    7.0575   -4.4128    0.0000 S   0  0
    7.0629   -7.0113    0.0000 N   0  0
    8.5637   -7.0091    0.0000 C   0  0
    9.3115   -5.7088    0.0000 O   0  0
    9.3168   -8.3073    0.0000 C   0  0
   10.7977   -8.4452    0.0000 C   0  0
   11.1096   -9.9124    0.0000 C   0  0
    9.8106  -10.6624    0.0000 C   0  0
    8.6958   -9.6587    0.0000 O   0  0
    6.3148   -8.3123    0.0000 C   0  0
    7.0653   -9.6112    0.0000 C   0  0
    6.3158  -10.9105    0.0000 C   0  0
    4.8158  -10.9111    0.0000 C   0  0
    4.0663  -12.2104    0.0000 Cl  0  0
    4.0653   -9.6124    0.0000 C   0  0
    4.8148   -8.3130    0.0000 C   0  0
  1  2  2  0
  2  3  1  0
  3  4  2  0
  4  5  1  0
  5  6  2  0
  6  7  1  0
  7  8  2  0
  8  3  1  0
  8  9  1  0
  9 10  2  0
  9 11  1  0
 11  2  1  0
 11 12  1  0
 12 13  1  0
 13 14  1  0
 14 15  1  0
 15 16  2  0
 15 17  1  0
 17 18  1  0
 18 19  2  0
 18 20  1  0
 20 21  2  0
 21 22  1  0
 22 23  2  0
 23 24  1  0
 24 20  1  0
 17 25  1  0
 25 26  2  0
 26 27  1  0
 27 28  2  0
 28 29  1  0
 28 30  1  0
 30 31  2  0
 31 25  1  0
M  END
> <Smiles>
O=C1c2ccccc2C(=O)N1CCOC(=S)N(C(=O)c1ccco1)c1ccc(Cl)cc1

> <IC50_uM>
0.007

> <pIC50>
8.15490196

> <Activity>
1

$$$$

  SciTegic10102310092D

 34 36  0  0  0  0            999 V2000
    2.5981   -1.5000    0.0000 C   0  0
    1.2990   -0.7500    0.0000 C   0  0
    1.2990    0.7500    0.0000 C   0  0
    0.0000    1.5000    0.0000 C   0  0
    0.0000    3.0008    0.0000 C   0  0
    0.0000    4.5008    0.0000 N   0  0
   -1.2990    0.7500    0.0000 C   0  0
   -1.2990   -0.7500    0.0000 C   0  0
   -2.5972   -1.5031    0.0000 C   0  0
   -3.8976   -0.7554    0.0000 O   0  0
   -2.5951   -3.0039    0.0000 C   0  0
   -1.2935   -3.7495    0.0000 C   0  0
   -1.2883   -5.2495    0.0000 C   0  0
    0.0134   -5.9950    0.0000 Cl  0  0
   -2.5847   -6.0040    0.0000 C   0  0
   -3.8863   -5.2585    0.0000 C   0  0
   -3.8915   -3.7585    0.0000 C   0  0
   -5.1954   -3.0153    0.0000 O   0  0
   -6.4915   -3.7721    0.0000 C   0  0
   -7.7954   -3.0289    0.0000 C   0  0
   -7.8032   -1.5289    0.0000 O   0  0
   -9.0914   -3.7857    0.0000 N   0  0
  -10.3953   -3.0425    0.0000 C   0  0
  -10.4007   -1.5425    0.0000 C   0  0
  -11.7023   -0.7971    0.0000 N   0  0
  -12.9987   -1.5516    0.0000 C   0  0
  -14.3011   -0.8058    0.0000 S   0  0
  -15.5973   -1.5608    0.0000 N   0  0
  -14.3073    0.6942    0.0000 O   0  0
  -15.6031   -0.0610    0.0000 O   0  0
  -12.9934   -3.0516    0.0000 C   0  0
  -11.6918   -3.7970    0.0000 C   0  0
  -11.6865   -5.2970    0.0000 C   0  0
    0.0000   -1.5000    0.0000 C   0  0
  1  2  1  0
  2  3  2  0
  3  4  1  0
  4  5  1  0
  5  6  3  0
  4  7  2  0
  7  8  1  0
  8  9  1  0
  9 10  2  0
  9 11  1  0
 11 12  2  0
 12 13  1  0
 13 14  1  0
 13 15  2  0
 15 16  1  0
 16 17  2  0
 17 11  1  0
 17 18  1  0
 18 19  1  0
 19 20  1  0
 20 21  2  0
 20 22  1  0
 22 23  1  0
 23 24  2  0
 24 25  1  0
 25 26  2  0
 26 27  1  0
 27 28  1  0
 27 29  2  0
 27 30  2  0
 26 31  1  0
 31 32  2  0
 32 23  1  0
 32 33  1  0
  8 34  2  0
 34  2  1  0
M  END
> <Smiles>
Cc1cc(C#N)cc(C(=O)c2cc(Cl)ccc2OCC(=O)Nc2cnc(S(N)(=O)=O)cc2C)c1

> <IC50_uM>
0.007079

> <pIC50>
8.150028088

> <Activity>
1

$$$$

  SciTegic10102310092D

 38 42  0  0  0  0            999 V2000
    2.5923    1.5001    0.0000 C   0  0
    3.8939    0.7546    0.0000 C   0  0
    5.1903    1.5091    0.0000 C   0  0
    6.4920    0.7636    0.0000 C   0  0
    7.7891    1.5185    0.0000 C   0  0
    9.0856    2.2729    0.0000 N   0  0
    6.4972   -0.7364    0.0000 C   0  0
    5.2007   -1.4909    0.0000 C   0  0
    5.2059   -2.9909    0.0000 C   0  0
    3.8990   -0.7455    0.0000 C   0  0
    2.6003   -1.4977    0.0000 O   0  0
    1.2990   -0.7500    0.0000 C   0  0
    1.2990    0.7500    0.0000 N   0  0
    0.0000    1.5000    0.0000 C   0  0
   -0.0031    3.0008    0.0000 N   0  0
   -1.3039    3.7494    0.0000 C   0  0
   -1.3092    5.2494    0.0000 C   0  0
   -2.6108    5.9949    0.0000 C   0  0
   -3.9073    5.2404    0.0000 N   0  0
   -5.2112    5.9836    0.0000 C   0  0
   -6.5072    5.2269    0.0000 C   0  0
   -7.8115    5.9678    0.0000 C   0  0
   -9.1053    5.2088    0.0000 C   0  0
   -9.0949    3.7089    0.0000 C   0  0
  -10.3895    2.9495    0.0000 S   0  0
  -10.3786    1.4495    0.0000 C   0  0
  -11.6941    3.6896    0.0000 O   0  0
  -11.6829    2.1899    0.0000 O   0  0
   -7.7907    2.9679    0.0000 C   0  0
   -6.4969    3.7269    0.0000 C   0  0
   -3.9021    3.7404    0.0000 C   0  0
   -2.6005    2.9949    0.0000 C   0  0
   -1.2990    0.7500    0.0000 N   0  0
   -1.2990   -0.7500    0.0000 C   0  0
   -2.4133   -1.7530    0.0000 S   0  0
   -1.8032   -3.1233    0.0000 C   0  0
   -0.3114   -2.9665    0.0000 C   0  0
    0.0000   -1.5000    0.0000 C   0  0
  1  2  1  0
  2  3  2  0
  3  4  1  0
  4  5  1  0
  5  6  3  0
  4  7  2  0
  7  8  1  0
  8  9  1  0
  8 10  2  0
 10  2  1  0
 10 11  1  0
 11 12  1  0
 12 13  2  0
 13 14  1  0
 14 15  1  0
 15 16  1  0
 16 17  1  0
 17 18  1  0
 18 19  1  0
 19 20  1  0
 20 21  1  0
 21 22  2  0
 22 23  1  0
 23 24  2  0
 24 25  1  0
 25 26  1  0
 25 27  2  0
 25 28  2  0
 24 29  1  0
 29 30  2  0
 30 21  1  0
 19 31  1  0
 31 32  1  0
 32 16  1  0
 14 33  2  0
 33 34  1  0
 34 35  1  0
 35 36  1  0
 36 37  2  0
 37 38  1  0
 38 12  1  0
 38 34  2  0
M  END
> <Smiles>
Cc1cc(C#N)cc(C)c1Oc1nc(NC2CCN(Cc3ccc(S(C)(=O)=O)cc3)CC2)nc2sccc12

> <IC50_uM>
0.00726

> <pIC50>
8.139063379

> <Activity>
1

$$$$

  SciTegic10102310092D

 29 32  0  0  0  0            999 V2000
   -3.4458   -7.0055    0.0000 N   0  0
   -2.7003   -8.3072    0.0000 C   0  0
   -1.9545   -9.6096    0.0000 C   0  0
   -2.7090  -10.9060    0.0000 C   0  0
   -1.9635  -12.2076    0.0000 C   0  0
   -2.7181  -13.5040    0.0000 Cl  0  0
   -0.4635  -12.2129    0.0000 C   0  0
    0.2911  -10.9165    0.0000 C   0  0
    1.7919  -10.9187    0.0000 O   0  0
    2.5450   -9.6205    0.0000 C   0  0
    1.7951   -8.3214    0.0000 C   0  0
    2.5451   -7.0223    0.0000 C   0  0
    1.7974   -5.7210    0.0000 O   0  0
    2.5497   -4.4224    0.0000 C   0  0
    1.8032   -3.1233    0.0000 C   0  0
    2.4133   -1.7530    0.0000 N   0  0
    1.2990   -0.7500    0.0000 C   0  0
    1.2990    0.7500    0.0000 C   0  0
    0.0000    1.5000    0.0000 C   0  0
   -1.2990    0.7500    0.0000 C   0  0
   -1.2990   -0.7500    0.0000 C   0  0
   -2.5981   -1.5000    0.0000 Cl  0  0
    0.0000   -1.5000    0.0000 C   0  0
    0.3114   -2.9665    0.0000 N   0  0
    4.0452   -7.0225    0.0000 C   0  0
    4.7951   -8.3215    0.0000 C   0  0
    4.0450   -9.6205    0.0000 C   0  0
    4.7950  -10.9196    0.0000 Cl  0  0
   -0.4545   -9.6148    0.0000 C   0  0
  1  2  3  0
  2  3  1  0
  3  4  2  0
  4  5  1  0
  5  6  1  0
  5  7  2  0
  7  8  1  0
  8  9  1  0
  9 10  1  0
 10 11  2  0
 11 12  1  0
 12 13  1  0
 13 14  1  0
 14 15  1  0
 15 16  2  0
 16 17  1  0
 17 18  2  0
 18 19  1  0
 19 20  2  0
 20 21  1  0
 21 22  1  0
 21 23  2  0
 23 17  1  0
 23 24  1  0
 24 15  1  0
 12 25  2  0
 25 26  1  0
 26 27  2  0
 27 10  1  0
 27 28  1  0
  8 29  2  0
 29  3  1  0
M  END
> <Smiles>
N#Cc1cc(Cl)cc(Oc2cc(OCc3nc4cccc(Cl)c4[nH]3)ccc2Cl)c1

> <IC50_uM>
0.0073

> <pIC50>
8.13667714

> <Activity>
1

$$$$

  SciTegic10102310092D

 25 27  0  0  0  0            999 V2000
    3.8983   -0.7459    0.0000 C   0  0
    2.6003   -1.4977    0.0000 O   0  0
    1.2990   -0.7500    0.0000 C   0  0
    1.2990    0.7500    0.0000 C   0  0
    0.0000    1.5000    0.0000 C   0  0
   -1.2990    0.7500    0.0000 C   0  0
   -2.5987    1.5004    0.0000 C   0  0
   -2.6012    3.0004    0.0000 C   0  0
   -3.9015    3.7484    0.0000 C   0  0
   -5.1993    2.9963    0.0000 C   0  0
   -6.5018    3.7420    0.0000 C   0  0
   -7.7993    2.9876    0.0000 C   0  0
   -9.1021    3.7310    0.0000 C   0  0
  -10.3974    2.9744    0.0000 C   0  0
  -11.7002    3.7179    0.0000 O   0  0
  -10.3898    1.4745    0.0000 N   0  0
  -11.6850    0.7179    0.0000 O   0  0
   -9.0870    0.7310    0.0000 C   0  0
   -9.0794   -0.7689    0.0000 O   0  0
   -7.7918    1.4876    0.0000 N   0  0
   -5.1969    1.4963    0.0000 C   0  0
   -3.8967    0.7484    0.0000 C   0  0
   -1.2990   -0.7500    0.0000 C   0  0
    0.0000   -1.5000    0.0000 C   0  0
    0.0000   -3.0000    0.0000 F   0  0
  1  2  1  0
  2  3  1  0
  3  4  2  0
  4  5  1  0
  5  6  2  0
  6  7  1  0
  7  8  2  0
  8  9  1  0
  9 10  2  0
 10 11  1  0
 11 12  1  0
 12 13  2  0
 13 14  1  0
 14 15  2  0
 14 16  1  0
 16 17  1  0
 16 18  1  0
 18 19  2  0
 18 20  1  0
 20 12  1  0
 10 21  1  0
 21 22  2  0
 22  7  1  0
  6 23  1  0
 23 24  2  0
 24  3  1  0
 24 25  1  0
M  END
> <Smiles>
COc1ccc(-c2ccc(Cc3cc(=O)n(O)c(=O)[nH]3)cc2)cc1F

> <IC50_uM>
0.0076

> <pIC50>
8.119186408

> <Activity>
1

$$$$

  SciTegic10102310092D

 25 27  0  0  0  0            999 V2000
    3.8983   -0.7459    0.0000 C   0  0
    2.6003   -1.4977    0.0000 O   0  0
    1.2990   -0.7500    0.0000 C   0  0
    1.2990    0.7500    0.0000 C   0  0
    0.0000    1.5000    0.0000 C   0  0
   -1.2990    0.7500    0.0000 C   0  0
   -2.5987    1.5004    0.0000 C   0  0
   -2.6012    3.0004    0.0000 C   0  0
   -3.9015    3.7484    0.0000 C   0  0
   -5.1993    2.9963    0.0000 C   0  0
   -5.1969    1.4963    0.0000 C   0  0
   -6.4939    0.7411    0.0000 C   0  0
   -6.4894   -0.7597    0.0000 C   0  0
   -7.7846   -1.5163    0.0000 C   0  0
   -7.7770   -3.0163    0.0000 C   0  0
   -9.0723   -3.7729    0.0000 O   0  0
   -6.4742   -3.7597    0.0000 N   0  0
   -6.4667   -5.2597    0.0000 O   0  0
   -5.1790   -3.0032    0.0000 C   0  0
   -3.8762   -3.7466    0.0000 O   0  0
   -5.1866   -1.5032    0.0000 N   0  0
   -3.8967    0.7484    0.0000 C   0  0
   -1.2990   -0.7500    0.0000 C   0  0
    0.0000   -1.5000    0.0000 C   0  0
    0.0000   -3.0000    0.0000 F   0  0
  1  2  1  0
  2  3  1  0
  3  4  2  0
  4  5  1  0
  5  6  2  0
  6  7  1  0
  7  8  2  0
  8  9  1  0
  9 10  2  0
 10 11  1  0
 11 12  1  0
 12 13  1  0
 13 14  2  0
 14 15  1  0
 15 16  2  0
 15 17  1  0
 17 18  1  0
 17 19  1  0
 19 20  2  0
 19 21  1  0
 21 13  1  0
 11 22  2  0
 22  7  1  0
  6 23  1  0
 23 24  2  0
 24  3  1  0
 24 25  1  0
M  END
> <Smiles>
COc1ccc(-c2cccc(Cc3cc(=O)n(O)c(=O)[nH]3)c2)cc1F

> <IC50_uM>
0.0077

> <pIC50>
8.113509275

> <Activity>
1

$$$$

  SciTegic10102310092D

 26 28  0  0  0  0            999 V2000
    2.5981   -1.5000    0.0000 C   0  0
    1.2990   -0.7500    0.0000 C   0  0
    1.2990    0.7500    0.0000 C   0  0
    0.0000    1.5000    0.0000 C   0  0
    0.0000    3.0008    0.0000 C   0  0
    0.0000    4.5008    0.0000 N   0  0
   -1.2990    0.7500    0.0000 C   0  0
   -1.2990   -0.7500    0.0000 C   0  0
   -2.5981   -1.5000    0.0000 C   0  0
    0.0000   -1.5000    0.0000 C   0  0
    0.0031   -3.0008    0.0000 N   0  0
    1.3039   -3.7494    0.0000 C   0  0
    1.3092   -5.2494    0.0000 C   0  0
    2.6108   -5.9949    0.0000 C   0  0
    3.9073   -5.2404    0.0000 N   0  0
    3.9021   -3.7404    0.0000 C   0  0
    5.1977   -2.9829    0.0000 N   0  0
    5.1903   -1.4820    0.0000 C   0  0
    6.4841   -0.7230    0.0000 C   0  0
    6.4738    0.7770    0.0000 C   0  0
    5.1696    1.5180    0.0000 C   0  0
    5.1592    3.0188    0.0000 C   0  0
    5.1488    4.5187    0.0000 N   0  0
    3.8757    0.7590    0.0000 C   0  0
    3.8861   -0.7410    0.0000 C   0  0
    2.6004   -2.9949    0.0000 N   0  0
  1  2  1  0
  2  3  2  0
  3  4  1  0
  4  5  1  0
  5  6  3  0
  4  7  2  0
  7  8  1  0
  8  9  1  0
  8 10  2  0
 10  2  1  0
 10 11  1  0
 11 12  1  0
 12 13  2  0
 13 14  1  0
 14 15  2  0
 15 16  1  0
 16 17  1  0
 17 18  1  0
 18 19  2  0
 19 20  1  0
 20 21  2  0
 21 22  1  0
 22 23  3  0
 21 24  1  0
 24 25  2  0
 25 18  1  0
 16 26  2  0
 26 12  1  0
M  END
> <Smiles>
Cc1cc(C#N)cc(C)c1Nc1ccnc(Nc2ccc(C#N)cc2)n1

> <IC50_uM>
0.0078

> <pIC50>
8.107905397

> <Activity>
1

$$$$

  SciTegic10102310092D

 29 31  0  0  0  0            999 V2000
    2.5981   -1.5000    0.0000 C   0  0
    1.2990   -0.7500    0.0000 C   0  0
    1.2990    0.7500    0.0000 C   0  0
    2.5972    1.5031    0.0000 C   0  0
    2.5951    3.0039    0.0000 C   0  0
    3.8915    3.7585    0.0000 C   0  0
    5.1932    3.0131    0.0000 Cl  0  0
    3.8863    5.2585    0.0000 C   0  0
    2.5847    6.0040    0.0000 C   0  0
    1.2883    5.2495    0.0000 C   0  0
    1.2934    3.7495    0.0000 C   0  0
   -0.0030    2.9951    0.0000 Cl  0  0
    0.0000    1.5000    0.0000 N   0  0
   -1.2990    0.7500    0.0000 C   0  0
   -2.6003    1.4977    0.0000 N   0  0
   -2.6030    2.9977    0.0000 C   0  0
   -3.8990    0.7455    0.0000 C   0  0
   -5.2003    1.4932    0.0000 C   0  0
   -6.4994    0.7432    0.0000 C   0  0
   -7.7985    1.4932    0.0000 C   0  0
   -7.7985    2.9932    0.0000 C   0  0
   -9.0967    3.7462    0.0000 N   0  3
   -9.0947    5.2462    0.0000 O   0  0
  -10.3971    2.9985    0.0000 O   0  5
   -6.4995    3.7432    0.0000 C   0  0
   -5.2004    2.9933    0.0000 C   0  0
   -1.2990   -0.7500    0.0000 N   0  0
    0.0000   -1.5000    0.0000 C   0  0
    0.0000   -3.0000    0.0000 O   0  0
  1  2  1  0
  2  3  2  0
  3  4  1  0
  4  5  1  0
  5  6  2  0
  6  7  1  0
  6  8  1  0
  8  9  2  0
  9 10  1  0
 10 11  2  0
 11  5  1  0
 11 12  1  0
  3 13  1  0
 13 14  2  0
 14 15  1  0
 15 16  1  0
 15 17  1  0
 17 18  1  0
 18 19  2  0
 19 20  1  0
 20 21  2  0
 21 22  1  0
 22 23  2  0
 22 24  1  0
 21 25  1  0
 25 26  2  0
 26 18  1  0
 14 27  1  0
 27 28  1  0
 28  2  1  0
 28 29  2  0
M  CHG  2  22   1  24  -1
M  END
> <Smiles>
Cc1c(Cc2c(Cl)cccc2Cl)nc(N(C)Cc2ccc([N+](=O)[O-])cc2)[nH]c1=O

> <IC50_uM>
0.00785

> <pIC50>
8.105130343

> <Activity>
1

$$$$

  SciTegic10102310092D

 37 40  0  0  0  0            999 V2000
    5.1978   -4.5012    0.0000 C   0  0
    5.1983   -3.0012    0.0000 C   0  0
    3.8991   -3.7510    0.0000 C   0  0
    3.8985   -2.2508    0.0000 C   0  0
    2.5988   -1.5004    0.0000 C   0  0
    1.2990   -0.7500    0.0000 C   0  0
    1.2990    0.7500    0.0000 C   0  0
    0.0000    1.5000    0.0000 C   0  0
   -1.2990    0.7500    0.0000 C   0  0
   -2.5973    1.5031    0.0000 N   0  0
   -2.5951    3.0039    0.0000 C   0  0
   -1.2948    3.7516    0.0000 O   0  0
   -3.8933    3.7570    0.0000 C   0  0
   -3.8912    5.2578    0.0000 S   0  0
   -5.1894    6.0109    0.0000 C   0  0
   -6.5408    5.3898    0.0000 N   0  0
   -7.5445    6.5046    0.0000 N   0  0
   -6.7945    7.8036    0.0000 N   0  0
   -5.3273    7.4917    0.0000 N   0  0
   -4.2061    8.4893    0.0000 C   0  0
   -4.6302    9.9300    0.0000 C   0  0
   -3.5923   11.0129    0.0000 C   0  0
   -2.1355   10.6554    0.0000 C   0  0
   -1.0970   11.7388    0.0000 C   0  0
   -0.8006   13.1292    0.0000 C   0  0
    0.2807   12.0895    0.0000 C   0  0
   -1.7166    9.2151    0.0000 C   0  0
   -2.7546    8.1322    0.0000 C   0  0
   -2.3362    6.6917    0.0000 Cl  0  0
   -1.2990   -0.7500    0.0000 C   0  0
   -2.5981   -1.5000    0.0000 Cl  0  0
    0.0000   -1.5000    0.0000 C   0  0
    6.4985   -2.2516    0.0000 N   0  0
    7.7983   -3.0020    0.0000 C   0  0
    7.7978   -4.5020    0.0000 O   0  0
    9.0985   -2.2525    0.0000 C   0  0
   10.3975   -3.0025    0.0000 N   0  0
  1  2  1  0
  2  3  1  0
  2  4  1  0
  4  5  3  0
  5  6  1  0
  6  7  2  0
  7  8  1  0
  8  9  2  0
  9 10  1  0
 10 11  1  0
 11 12  2  0
 11 13  1  0
 13 14  1  0
 14 15  1  0
 15 16  2  0
 16 17  1  0
 17 18  2  0
 18 19  1  0
 19 15  1  0
 19 20  1  0
 20 21  2  0
 21 22  1  0
 22 23  2  0
 23 24  1  0
 24 25  1  0
 25 26  1  0
 26 24  1  0
 23 27  1  0
 27 28  2  0
 28 20  1  0
 28 29  1  0
  9 30  1  0
 30 31  1  0
 30 32  2  0
 32  6  1  0
  2 33  1  0
 33 34  1  0
 34 35  2  0
 34 36  1  0
 36 37  1  0
M  END
> <Smiles>
CC(C)(C#Cc1ccc(NC(=O)CSc2nnnn2-c2ccc(C3CC3)cc2Cl)c(Cl)c1)NC(=O)CN

> <IC50_uM>
0.0079

> <pIC50>
8.102372909

> <Activity>
1

$$$$

  SciTegic10102310092D

 28 30  0  0  0  0            999 V2000
    3.8978   -2.2504    0.0000 N   0  0
    2.5988   -1.5004    0.0000 C   0  0
    1.2990   -0.7500    0.0000 C   0  0
    1.2990    0.7500    0.0000 C   0  0
    0.0000    1.5000    0.0000 C   0  0
    0.0000    3.0000    0.0000 Cl  0  0
   -1.2990    0.7500    0.0000 C   0  0
   -1.2990   -0.7500    0.0000 C   0  0
   -2.5972   -1.5031    0.0000 O   0  0
   -2.5951   -3.0039    0.0000 C   0  0
   -3.8915   -3.7585    0.0000 C   0  0
   -5.1932   -3.0131    0.0000 F   0  0
   -3.8863   -5.2585    0.0000 C   0  0
   -5.1819   -6.0161    0.0000 C   0  0
   -5.1746   -7.5169    0.0000 C   0  0
   -6.4702   -8.2745    0.0000 C   0  0
   -6.4650   -9.7745    0.0000 C   0  0
   -7.7615  -10.5290    0.0000 C   0  0
   -9.0631   -9.7835    0.0000 C   0  0
   -9.0683   -8.2836    0.0000 C   0  0
  -10.3700   -7.5381    0.0000 Cl  0  0
   -7.7719   -7.5290    0.0000 C   0  0
   -2.5847   -6.0040    0.0000 N   0  0
   -1.2883   -5.2495    0.0000 C   0  0
    0.0134   -5.9950    0.0000 O   0  0
   -1.2935   -3.7495    0.0000 C   0  0
    0.0030   -2.9951    0.0000 Br  0  0
    0.0000   -1.5000    0.0000 C   0  0
  1  2  3  0
  2  3  1  0
  3  4  2  0
  4  5  1  0
  5  6  1  0
  5  7  2  0
  7  8  1  0
  8  9  1  0
  9 10  1  0
 10 11  1  0
 11 12  1  0
 11 13  2  0
 13 14  1  0
 14 15  1  0
 15 16  1  0
 16 17  2  0
 17 18  1  0
 18 19  2  0
 19 20  1  0
 20 21  1  0
 20 22  2  0
 22 16  1  0
 13 23  1  0
 23 24  1  0
 24 25  2  0
 24 26  1  0
 26 10  2  0
 26 27  1  0
  8 28  2  0
 28  3  1  0
M  END
> <Smiles>
N#Cc1cc(Cl)cc(Oc2c(F)c(CCc3cccc(Cl)c3)[nH]c(=O)c2Br)c1

> <IC50_uM>
0.008

> <pIC50>
8.096910013

> <Activity>
1

$$$$

  SciTegic10102310092D

 23 24  0  0  0  0            999 V2000
    3.8983   -0.7566    0.0000 C   0  0
    2.5973   -1.5031    0.0000 C   0  0
    1.2990   -0.7500    0.0000 C   0  0
    1.2990    0.7500    0.0000 C   0  0
    2.5981    1.5000    0.0000 C   0  0
    0.0000    1.5000    0.0000 N   0  0
   -1.2990    0.7500    0.0000 C   0  0
   -2.5981    1.5000    0.0000 O   0  0
   -1.2990   -0.7500    0.0000 C   0  0
   -2.5972   -1.5031    0.0000 N   0  0
   -3.8976   -0.7554    0.0000 C   0  0
   -2.5951   -3.0039    0.0000 C   0  0
   -3.8926   -3.7566    0.0000 C   0  0
    0.0000   -1.5000    0.0000 C   0  0
    0.0031   -3.0008    0.0000 C   0  0
    1.3039   -3.7494    0.0000 C   0  0
    1.3092   -5.2494    0.0000 C   0  0
    2.6108   -5.9949    0.0000 C   0  0
    2.6160   -7.4949    0.0000 C   0  0
    3.9073   -5.2404    0.0000 C   0  0
    3.9021   -3.7404    0.0000 C   0  0
    5.1985   -2.9859    0.0000 C   0  0
    2.6004   -2.9949    0.0000 C   0  0
  1  2  1  0
  2  3  1  0
  3  4  2  0
  4  5  1  0
  4  6  1  0
  6  7  1  0
  7  8  2  0
  7  9  1  0
  9 10  1  0
 10 11  1  0
 10 12  1  0
 12 13  1  0
  9 14  2  0
 14  3  1  0
 14 15  1  0
 15 16  1  0
 16 17  2  0
 17 18  1  0
 18 19  1  0
 18 20  2  0
 20 21  1  0
 21 22  1  0
 21 23  2  0
 23 16  1  0
M  END
> <Smiles>
CCc1c(C)[nH]c(=O)c(N(C)CC)c1Cc1cc(C)cc(C)c1

> <IC50_uM>
0.008

> <pIC50>
8.096910013

> <Activity>
1

$$$$

  SciTegic10102310092D

 29 31  0  0  0  0            999 V2000
   14.2905    0.7816    0.0000 N   0  0
   12.9891    1.5275    0.0000 S   0  0
   12.9848    3.0275    0.0000 O   0  0
   14.2859    2.2814    0.0000 O   0  0
   11.6919    0.7726    0.0000 C   0  0
   10.3903    1.5181    0.0000 C   0  0
    9.0939    0.7636    0.0000 C   0  0
    9.0990   -0.7364    0.0000 C   0  0
    7.8003   -1.4887    0.0000 N   0  0
    6.4990   -0.7409    0.0000 C   0  0
    6.4964    0.7591    0.0000 O   0  0
    5.2003   -1.4932    0.0000 C   0  0
    3.8990   -0.7455    0.0000 S   0  0
    2.6003   -1.4977    0.0000 C   0  0
    2.6030   -2.9977    0.0000 O   0  0
    1.2990   -0.7500    0.0000 N   0  0
    1.2990    0.7500    0.0000 C   0  0
    0.0000    1.5000    0.0000 C   0  0
   -1.2990    0.7500    0.0000 C   0  0
   -1.2990   -0.7500    0.0000 C   0  0
   -2.5981   -1.5000    0.0000 C   0  0
   -2.5981   -3.0000    0.0000 C   0  0
   -3.8971   -3.7500    0.0000 Cl  0  0
   -1.2990   -3.7500    0.0000 C   0  0
    0.0000   -3.0000    0.0000 C   0  0
    0.0000   -1.5000    0.0000 C   0  0
   10.4007   -1.4818    0.0000 C   0  0
   10.4059   -2.9818    0.0000 Cl  0  0
   11.6971   -0.7274    0.0000 C   0  0
  1  2  1  0
  2  3  2  0
  2  4  2  0
  2  5  1  0
  5  6  2  0
  6  7  1  0
  7  8  2  0
  8  9  1  0
  9 10  1  0
 10 11  2  0
 10 12  1  0
 12 13  1  0
 13 14  1  0
 14 15  2  0
 14 16  1  0
 16 17  1  0
 17 18  1  0
 18 19  1  0
 19 20  1  0
 20 21  2  0
 21 22  1  0
 22 23  1  0
 22 24  2  0
 24 25  1  0
 25 26  2  0
 26 20  1  0
 26 16  1  0
  8 27  1  0
 27 28  1  0
 27 29  2  0
 29  5  1  0
M  END
> <Smiles>
NS(=O)(=O)c1ccc(NC(=O)CSC(=O)N2CCCc3cc(Cl)ccc32)c(Cl)c1

> <IC50_uM>
0.008

> <pIC50>
8.096910013

> <Activity>
1

$$$$

  SciTegic10102310092D

 26 28  0  0  0  0            999 V2000
    2.5981   -1.5000    0.0000 C   0  0
    1.2990   -0.7500    0.0000 C   0  0
    1.2990    0.7500    0.0000 N   0  0
    0.0000    1.5000    0.0000 C   0  0
    0.0000    3.0000    0.0000 O   0  0
   -1.2990    0.7500    0.0000 C   0  0
   -2.5981    1.5000    0.0000 Br  0  0
   -1.2990   -0.7500    0.0000 C   0  0
   -2.5972   -1.5031    0.0000 O   0  0
   -2.5951   -3.0039    0.0000 C   0  0
   -3.8915   -3.7585    0.0000 C   0  0
   -3.8863   -5.2585    0.0000 C   0  0
   -5.1828   -6.0130    0.0000 Cl  0  0
   -2.5847   -6.0040    0.0000 C   0  0
   -1.2883   -5.2495    0.0000 C   0  0
    0.0141   -5.9954    0.0000 C   0  0
    1.3157   -6.7409    0.0000 N   0  0
   -1.2935   -3.7495    0.0000 C   0  0
    0.0000   -1.5000    0.0000 C   0  0
    0.0031   -3.0008    0.0000 C   0  0
    1.3039   -3.7494    0.0000 C   0  0
    1.3092   -5.2494    0.0000 C   0  0
    2.6108   -5.9949    0.0000 C   0  0
    3.9073   -5.2404    0.0000 C   0  0
    3.9021   -3.7404    0.0000 C   0  0
    2.6004   -2.9949    0.0000 C   0  0
  1  2  1  0
  2  3  1  0
  3  4  1  0
  4  5  2  0
  4  6  1  0
  6  7  1  0
  6  8  2  0
  8  9  1  0
  9 10  1  0
 10 11  2  0
 11 12  1  0
 12 13  1  0
 12 14  2  0
 14 15  1  0
 15 16  1  0
 16 17  3  0
 15 18  2  0
 18 10  1  0
  8 19  1  0
 19  2  2  0
 19 20  1  0
 20 21  1  0
 21 22  2  0
 22 23  1  0
 23 24  2  0
 24 25  1  0
 25 26  2  0
 26 21  1  0
M  END
> <Smiles>
Cc1[nH]c(=O)c(Br)c(Oc2cc(Cl)cc(C#N)c2)c1Cc1ccccc1

> <IC50_uM>
0.008

> <pIC50>
8.096910013

> <Activity>
1

$$$$

  SciTegic10102310092D

 33 36  0  0  0  0            999 V2000
    3.8805   -1.4410    0.0000 O   0  0
    2.4133   -1.7530    0.0000 C   0  0
    1.2990   -0.7500    0.0000 C   0  0
    1.2990    0.7500    0.0000 C   0  0
    0.0000    1.5000    0.0000 C   0  0
   -1.2990    0.7500    0.0000 C   0  0
   -1.2990   -0.7500    0.0000 C   0  0
    0.0000   -1.5000    0.0000 C   0  0
    0.3114   -2.9665    0.0000 C   0  0
   -0.6923   -4.0811    0.0000 O   0  0
    1.8032   -3.1233    0.0000 N   0  0
    2.5551   -4.4192    0.0000 C   0  0
    4.0559   -4.4171    0.0000 C   0  0
    4.8090   -5.7153    0.0000 O   0  0
    6.3098   -5.7131    0.0000 C   0  0
    7.0575   -4.4128    0.0000 S   0  0
    7.0629   -7.0113    0.0000 N   0  0
    8.5637   -7.0091    0.0000 C   0  0
    9.3115   -5.7088    0.0000 O   0  0
    9.3168   -8.3073    0.0000 C   0  0
   10.7977   -8.4452    0.0000 C   0  0
   11.1096   -9.9124    0.0000 C   0  0
    9.8106  -10.6624    0.0000 C   0  0
    8.6958   -9.6587    0.0000 O   0  0
    6.3148   -8.3123    0.0000 C   0  0
    7.0653   -9.6112    0.0000 C   0  0
    6.3158  -10.9105    0.0000 C   0  0
    4.8158  -10.9111    0.0000 C   0  0
    4.0632  -12.2096    0.0000 N   0  3
    2.5632  -12.2081    0.0000 O   0  0
    4.8115  -13.5097    0.0000 O   0  5
    4.0653   -9.6124    0.0000 C   0  0
    4.8148   -8.3130    0.0000 C   0  0
  1  2  2  0
  2  3  1  0
  3  4  2  0
  4  5  1  0
  5  6  2  0
  6  7  1  0
  7  8  2  0
  8  3  1  0
  8  9  1  0
  9 10  2  0
  9 11  1  0
 11  2  1  0
 11 12  1  0
 12 13  1  0
 13 14  1  0
 14 15  1  0
 15 16  2  0
 15 17  1  0
 17 18  1  0
 18 19  2  0
 18 20  1  0
 20 21  2  0
 21 22  1  0
 22 23  2  0
 23 24  1  0
 24 20  1  0
 17 25  1  0
 25 26  2  0
 26 27  1  0
 27 28  2  0
 28 29  1  0
 29 30  2  0
 29 31  1  0
 28 32  1  0
 32 33  2  0
 33 25  1  0
M  CHG  2  29   1  31  -1
M  END
> <Smiles>
O=C1c2ccccc2C(=O)N1CCOC(=S)N(C(=O)c1ccco1)c1ccc([N+](=O)[O-])cc1

> <IC50_uM>
0.008

> <pIC50>
8.096910013

> <Activity>
1

$$$$

  SciTegic10102310092D

 33 36  0  0  0  0            999 V2000
    2.5981   -1.5000    0.0000 C   0  0
    1.2990   -0.7500    0.0000 C   0  0
    1.2990    0.7500    0.0000 C   0  0
    0.0000    1.5000    0.0000 C   0  0
    0.0000    3.0008    0.0000 C   0  0
    0.0000    4.5008    0.0000 N   0  0
   -1.2990    0.7500    0.0000 C   0  0
   -1.2990   -0.7500    0.0000 C   0  0
   -2.5981   -1.5000    0.0000 Cl  0  0
    0.0000   -1.5000    0.0000 C   0  0
    0.0031   -3.0008    0.0000 O   0  0
    1.3039   -3.7494    0.0000 C   0  0
    1.3092   -5.2494    0.0000 C   0  0
    2.6108   -5.9949    0.0000 C   0  0
    3.9073   -5.2404    0.0000 N   0  0
    3.9021   -3.7404    0.0000 C   0  0
    5.1977   -2.9829    0.0000 N   0  0
    5.1903   -1.4820    0.0000 C   0  0
    6.4841   -0.7230    0.0000 C   0  0
    6.4738    0.7770    0.0000 C   0  0
    5.1696    1.5180    0.0000 N   0  0
    5.1592    3.0187    0.0000 C   0  0
    6.4518    3.7798    0.0000 C   0  0
    6.4390    5.2798    0.0000 C   0  0
    5.1337    6.0187    0.0000 C   0  0
    3.8411    5.2577    0.0000 C   0  0
    2.5334    5.9943    0.0000 C   0  0
    2.5181    7.4942    0.0000 N   0  0
    1.2419    5.2315    0.0000 O   0  0
    3.8538    3.7577    0.0000 C   0  0
    3.8757    0.7590    0.0000 C   0  0
    3.8861   -0.7410    0.0000 C   0  0
    2.6004   -2.9949    0.0000 N   0  0
  1  2  1  0
  2  3  2  0
  3  4  1  0
  4  5  1  0
  5  6  3  0
  4  7  2  0
  7  8  1  0
  8  9  1  0
  8 10  2  0
 10  2  1  0
 10 11  1  0
 11 12  1  0
 12 13  2  0
 13 14  1  0
 14 15  2  0
 15 16  1  0
 16 17  1  0
 17 18  1  0
 18 19  1  0
 19 20  1  0
 20 21  1  0
 21 22  1  0
 22 23  2  0
 23 24  1  0
 24 25  2  0
 25 26  1  0
 26 27  1  0
 27 28  1  0
 27 29  2  0
 26 30  2  0
 30 22  1  0
 21 31  1  0
 31 32  1  0
 32 18  1  0
 16 33  2  0
 33 12  1  0
M  END
> <Smiles>
Cc1cc(C#N)cc(Cl)c1Oc1ccnc(NC2CCN(c3cccc(C(N)=O)c3)CC2)n1

> <IC50_uM>
0.008

> <pIC50>
8.096910013

> <Activity>
1

$$$$

  SciTegic10102310092D

 31 34  0  0  0  0            999 V2000
    3.8805   -1.4410    0.0000 O   0  0
    2.4133   -1.7530    0.0000 C   0  0
    1.2990   -0.7500    0.0000 C   0  0
    1.2990    0.7500    0.0000 C   0  0
    0.0000    1.5000    0.0000 C   0  0
   -1.2990    0.7500    0.0000 C   0  0
   -1.2990   -0.7500    0.0000 C   0  0
    0.0000   -1.5000    0.0000 C   0  0
    0.3114   -2.9665    0.0000 C   0  0
   -0.6923   -4.0811    0.0000 O   0  0
    1.8032   -3.1233    0.0000 N   0  0
    2.5551   -4.4192    0.0000 C   0  0
    4.0559   -4.4171    0.0000 C   0  0
    4.8090   -5.7153    0.0000 O   0  0
    6.3098   -5.7131    0.0000 C   0  0
    7.0575   -4.4128    0.0000 S   0  0
    7.0629   -7.0113    0.0000 N   0  0
    8.5637   -7.0091    0.0000 C   0  0
    9.3115   -5.7088    0.0000 O   0  0
    9.3168   -8.3073    0.0000 C   0  0
   10.7977   -8.4452    0.0000 C   0  0
   11.1096   -9.9124    0.0000 C   0  0
    9.8106  -10.6624    0.0000 C   0  0
    8.6958   -9.6587    0.0000 S   0  0
    6.3148   -8.3123    0.0000 C   0  0
    7.0653   -9.6112    0.0000 C   0  0
    6.3158  -10.9105    0.0000 C   0  0
    4.8158  -10.9111    0.0000 C   0  0
    4.0663  -12.2104    0.0000 Cl  0  0
    4.0653   -9.6124    0.0000 C   0  0
    4.8148   -8.3130    0.0000 C   0  0
  1  2  2  0
  2  3  1  0
  3  4  2  0
  4  5  1  0
  5  6  2  0
  6  7  1  0
  7  8  2  0
  8  3  1  0
  8  9  1  0
  9 10  2  0
  9 11  1  0
 11  2  1  0
 11 12  1  0
 12 13  1  0
 13 14  1  0
 14 15  1  0
 15 16  2  0
 15 17  1  0
 17 18  1  0
 18 19  2  0
 18 20  1  0
 20 21  2  0
 21 22  1  0
 22 23  2  0
 23 24  1  0
 24 20  1  0
 17 25  1  0
 25 26  2  0
 26 27  1  0
 27 28  2  0
 28 29  1  0
 28 30  1  0
 30 31  2  0
 31 25  1  0
M  END
> <Smiles>
O=C1c2ccccc2C(=O)N1CCOC(=S)N(C(=O)c1cccs1)c1ccc(Cl)cc1

> <IC50_uM>
0.008

> <pIC50>
8.096910013

> <Activity>
1

$$$$

  SciTegic10102310092D

 35 37  0  0  0  0            999 V2000
    2.5981   -1.5000    0.0000 C   0  0
    1.2990   -0.7500    0.0000 C   0  0
    1.2990    0.7500    0.0000 C   0  0
    0.0000    1.5000    0.0000 C   0  0
   -0.0031    3.0008    0.0000 C   0  0
   -1.3039    3.7494    0.0000 C   0  0
   -1.3070    5.2502    0.0000 C   0  0
   -1.3101    6.7502    0.0000 N   0  0
   -1.2990    0.7500    0.0000 C   0  0
   -1.2990   -0.7500    0.0000 C   0  0
   -2.5981   -1.5000    0.0000 C   0  0
    0.0000   -1.5000    0.0000 C   0  0
    0.0031   -3.0008    0.0000 O   0  0
    1.3039   -3.7494    0.0000 C   0  0
    2.6005   -2.9949    0.0000 C   0  0
    3.9021   -3.7404    0.0000 C   0  0
    5.1977   -2.9829    0.0000 N   0  0
    5.1904   -1.4821    0.0000 C   0  0
    6.4842   -0.7230    0.0000 C   0  0
    6.4738    0.7770    0.0000 C   0  0
    5.1696    1.5180    0.0000 C   0  0
    5.1592    3.0188    0.0000 C   0  0
    5.1488    4.5187    0.0000 N   0  0
    3.8758    0.7590    0.0000 C   0  0
    3.8861   -0.7410    0.0000 C   0  0
    3.9073   -5.2404    0.0000 C   0  0
    5.2089   -5.9859    0.0000 N   0  0
    2.6108   -5.9949    0.0000 C   0  0
    1.3092   -5.2494    0.0000 C   0  0
    0.0136   -6.0070    0.0000 C   0  0
   -1.2893   -5.2638    0.0000 O   0  0
    0.0210   -7.5078    0.0000 N   0  0
   -1.2746   -8.2655    0.0000 C   0  0
   -1.2672   -9.7663    0.0000 C   0  0
   -2.5620  -10.5235    0.0000 Cl  0  0
  1  2  1  0
  2  3  2  0
  3  4  1  0
  4  5  1  0
  5  6  2  0
  6  7  1  0
  7  8  3  0
  4  9  2  0
  9 10  1  0
 10 11  1  0
 10 12  2  0
 12  2  1  0
 12 13  1  0
 13 14  1  0
 14 15  2  0
 15 16  1  0
 16 17  1  0
 17 18  1  0
 18 19  2  0
 19 20  1  0
 20 21  2  0
 21 22  1  0
 22 23  3  0
 21 24  1  0
 24 25  2  0
 25 18  1  0
 16 26  2  0
 26 27  1  0
 26 28  1  0
 28 29  2  0
 29 14  1  0
 29 30  1  0
 30 31  2  0
 30 32  1  0
 32 33  1  0
 33 34  1  0
 34 35  1  0
M  END
> <Smiles>
Cc1cc(/C=C/C#N)cc(C)c1Oc1cc(Nc2ccc(C#N)cc2)c(N)cc1C(=O)NCCCl

> <IC50_uM>
0.0085

> <pIC50>
8.070581074

> <Activity>
1

$$$$

  SciTegic10102310092D

 34 37  0  0  0  0            999 V2000
    2.5981   -1.5000    0.0000 C   0  0
    1.2990   -0.7500    0.0000 C   0  0
    1.2990    0.7500    0.0000 C   0  0
    0.0000    1.5000    0.0000 C   0  0
   -0.0031    3.0008    0.0000 C   0  0
   -1.3039    3.7494    0.0000 C   0  0
   -1.3070    5.2502    0.0000 C   0  0
   -1.3101    6.7502    0.0000 N   0  0
   -1.2990    0.7500    0.0000 C   0  0
   -1.2990   -0.7500    0.0000 C   0  0
   -2.5981   -1.5000    0.0000 C   0  0
    0.0000   -1.5000    0.0000 C   0  0
    0.0031   -3.0008    0.0000 O   0  0
    1.3039   -3.7494    0.0000 C   0  0
    2.6005   -2.9949    0.0000 C   0  0
    3.9021   -3.7404    0.0000 C   0  0
    5.1977   -2.9829    0.0000 N   0  0
    5.1904   -1.4821    0.0000 C   0  0
    6.4842   -0.7230    0.0000 C   0  0
    6.4738    0.7770    0.0000 C   0  0
    5.1696    1.5180    0.0000 C   0  0
    5.1592    3.0188    0.0000 C   0  0
    5.1488    4.5187    0.0000 N   0  0
    3.8758    0.7590    0.0000 C   0  0
    3.8861   -0.7410    0.0000 C   0  0
    3.9073   -5.2404    0.0000 C   0  0
    5.2089   -5.9859    0.0000 N   0  0
    2.6108   -5.9949    0.0000 C   0  0
    1.3092   -5.2494    0.0000 C   0  0
    0.0136   -6.0070    0.0000 C   0  0
   -1.2893   -5.2638    0.0000 O   0  0
    0.0210   -7.5078    0.0000 N   0  0
   -0.7205   -8.7207    0.0000 C   0  0
    0.7795   -8.7102    0.0000 C   0  0
  1  2  1  0
  2  3  2  0
  3  4  1  0
  4  5  1  0
  5  6  2  0
  6  7  1  0
  7  8  3  0
  4  9  2  0
  9 10  1  0
 10 11  1  0
 10 12  2  0
 12  2  1  0
 12 13  1  0
 13 14  1  0
 14 15  2  0
 15 16  1  0
 16 17  1  0
 17 18  1  0
 18 19  2  0
 19 20  1  0
 20 21  2  0
 21 22  1  0
 22 23  3  0
 21 24  1  0
 24 25  2  0
 25 18  1  0
 16 26  2  0
 26 27  1  0
 26 28  1  0
 28 29  2  0
 29 14  1  0
 29 30  1  0
 30 31  2  0
 30 32  1  0
 32 33  1  0
 33 34  1  0
 34 32  1  0
M  END
> <Smiles>
Cc1cc(/C=C/C#N)cc(C)c1Oc1cc(Nc2ccc(C#N)cc2)c(N)cc1C(=O)N1CC1

> <IC50_uM>
0.00869

> <pIC50>
8.060980224

> <Activity>
1

$$$$

  SciTegic10102310092D

 24 26  0  0  0  0            999 V2000
    2.5981   -1.5000    0.0000 C   0  0
    1.2990   -0.7500    0.0000 C   0  0
    1.2990    0.7500    0.0000 C   0  0
    0.0000    1.5000    0.0000 C   0  0
    0.0000    3.0008    0.0000 C   0  0
    1.2978    3.7529    0.0000 C   0  0
    1.2954    5.2529    0.0000 C   0  0
   -0.0048    6.0009    0.0000 C   0  0
   -1.3026    5.2488    0.0000 C   0  0
   -2.6051    5.9945    0.0000 C   0  0
   -3.9026    5.2401    0.0000 C   0  0
   -5.2055    5.9835    0.0000 C   0  0
   -6.5007    5.2270    0.0000 C   0  0
   -7.8035    5.9704    0.0000 O   0  0
   -6.4931    3.7270    0.0000 N   0  0
   -7.7884    2.9704    0.0000 O   0  0
   -5.1903    2.9835    0.0000 C   0  0
   -5.1828    1.4836    0.0000 O   0  0
   -3.8951    3.7401    0.0000 N   0  0
   -1.3002    3.7488    0.0000 C   0  0
   -1.2990    0.7500    0.0000 C   0  0
   -1.2990   -0.7500    0.0000 C   0  0
    0.0000   -1.5000    0.0000 C   0  0
    0.0000   -3.0000    0.0000 F   0  0
  1  2  1  0
  2  3  2  0
  3  4  1  0
  4  5  1  0
  5  6  2  0
  6  7  1  0
  7  8  2  0
  8  9  1  0
  9 10  1  0
 10 11  1  0
 11 12  2  0
 12 13  1  0
 13 14  2  0
 13 15  1  0
 15 16  1  0
 15 17  1  0
 17 18  2  0
 17 19  1  0
 19 11  1  0
  9 20  2  0
 20  5  1  0
  4 21  2  0
 21 22  1  0
 22 23  2  0
 23  2  1  0
 23 24  1  0
M  END
> <Smiles>
Cc1cc(-c2cccc(Cc3cc(=O)n(O)c(=O)[nH]3)c2)ccc1F

> <IC50_uM>
0.0088

> <pIC50>
8.055517328

> <Activity>
1

$$$$

  SciTegic10102310092D

 32 35  0  0  0  0            999 V2000
    4.8689    3.5238    0.0000 O   0  0
    5.9880    2.5249    0.0000 C   0  0
    5.6819    1.0557    0.0000 C   0  0
    4.2567    0.5852    0.0000 S   0  0
    3.9511   -0.8815    0.0000 C   0  0
    4.9531   -1.9978    0.0000 N   0  0
    4.2010   -3.2956    0.0000 N   0  0
    2.7343   -2.9815    0.0000 N   0  0
    2.5987   -1.5004    0.0000 N   0  0
    1.2990   -0.7500    0.0000 C   0  0
    1.2990    0.7500    0.0000 C   0  0
    0.0000    1.5000    0.0000 C   0  0
   -1.2990    0.7500    0.0000 C   0  0
   -2.5987    1.5004    0.0000 C   0  0
   -3.2716    2.7526    0.0000 C   0  0
   -4.0195    1.4524    0.0000 C   0  0
   -1.2990   -0.7500    0.0000 C   0  0
    0.0000   -1.5000    0.0000 C   0  0
    0.0000   -3.0000    0.0000 Cl  0  0
    7.4132    2.9954    0.0000 N   0  0
    7.7193    4.4647    0.0000 C   0  0
    6.5985    5.4617    0.0000 C   0  0
    6.9014    6.9308    0.0000 C   0  0
    8.3252    7.4030    0.0000 C   0  0
    8.6283    8.8728    0.0000 C   0  0
    8.9314   10.3427    0.0000 C   0  0
    9.2345   11.8126    0.0000 C   0  0
    8.1137   12.8108    0.0000 C   0  0
    8.4167   14.2799    0.0000 O   0  0
    9.4460    6.4061    0.0000 C   0  0
    9.1430    4.9370    0.0000 C   0  0
   10.2639    3.9401    0.0000 Cl  0  0
  1  2  2  0
  2  3  1  0
  3  4  1  0
  4  5  1  0
  5  6  2  0
  6  7  1  0
  7  8  2  0
  8  9  1  0
  9  5  1  0
  9 10  1  0
 10 11  2  0
 11 12  1  0
 12 13  2  0
 13 14  1  0
 14 15  1  0
 15 16  1  0
 16 14  1  0
 13 17  1  0
 17 18  2  0
 18 10  1  0
 18 19  1  0
  2 20  1  0
 20 21  1  0
 21 22  2  0
 22 23  1  0
 23 24  2  0
 24 25  1  0
 25 26  3  0
 26 27  1  0
 27 28  1  0
 28 29  1  0
 24 30  1  0
 30 31  2  0
 31 21  1  0
 31 32  1  0
M  END
> <Smiles>
O=C(CSc1nnnn1-c1ccc(C2CC2)cc1Cl)Nc1ccc(C#CCCO)cc1Cl

> <IC50_uM>
0.0089

> <pIC50>
8.050609993

> <Activity>
1

$$$$

  SciTegic10102310092D

 40 43  0  0  0  0            999 V2000
    2.5981   -1.5000    0.0000 C   0  0
    1.2990   -0.7500    0.0000 C   0  0
    1.2990    0.7500    0.0000 C   0  0
    0.0000    1.5000    0.0000 C   0  0
   -0.0031    3.0008    0.0000 N   0  0
   -1.3039    3.7494    0.0000 C   0  0
   -2.6017    2.9971    0.0000 O   0  0
   -1.3070    5.2502    0.0000 C   0  0
   -2.6078    5.9988    0.0000 C   0  0
   -2.6109    7.4996    0.0000 N   0  0
   -3.9100    8.2496    0.0000 C   0  0
   -3.9100    9.7496    0.0000 C   0  0
   -2.6110   10.4997    0.0000 O   0  0
   -1.3119    9.7497    0.0000 C   0  0
   -1.3119    8.2497    0.0000 C   0  0
   -1.2990    0.7500    0.0000 C   0  0
   -1.2990   -0.7500    0.0000 C   0  0
    0.0000   -1.5000    0.0000 C   0  0
   -0.0031   -3.0008    0.0000 N   0  0
   -1.3039   -3.7494    0.0000 C   0  0
   -2.6016   -2.9971    0.0000 O   0  0
   -1.3070   -5.2502    0.0000 C   0  0
   -2.6078   -5.9988    0.0000 O   0  0
   -2.6109   -7.4996    0.0000 C   0  0
   -1.3118   -8.2497    0.0000 C   0  0
   -1.3119   -9.7497    0.0000 C   0  0
   -2.6109  -10.4997    0.0000 C   0  0
   -2.6110  -11.9997    0.0000 Cl  0  0
   -3.9100   -9.7497    0.0000 C   0  0
   -3.9099   -8.2497    0.0000 C   0  0
   -5.2112   -7.5019    0.0000 C   0  0
   -5.2139   -6.0019    0.0000 O   0  0
   -6.5099   -8.2542    0.0000 C   0  0
   -7.8116   -7.5088    0.0000 C   0  0
   -9.1080   -8.2633    0.0000 C   0  0
  -10.4097   -7.5178    0.0000 F   0  0
   -9.1028   -9.7633    0.0000 C   0  0
   -7.8012  -10.5088    0.0000 C   0  0
   -7.7960  -12.0088    0.0000 F   0  0
   -6.5048   -9.7543    0.0000 C   0  0
  1  2  1  0
  2  3  2  0
  3  4  1  0
  4  5  1  0
  5  6  1  0
  6  7  2  0
  6  8  1  0
  8  9  1  0
  9 10  1  0
 10 11  1  0
 11 12  1  0
 12 13  1  0
 13 14  1  0
 14 15  1  0
 15 10  1  0
  4 16  2  0
 16 17  1  0
 17 18  2  0
 18  2  1  0
 18 19  1  0
 19 20  1  0
 20 21  2  0
 20 22  1  0
 22 23  1  0
 23 24  1  0
 24 25  2  0
 25 26  1  0
 26 27  2  0
 27 28  1  0
 27 29  1  0
 29 30  2  0
 30 24  1  0
 30 31  1  0
 31 32  2  0
 31 33  1  0
 33 34  2  0
 34 35  1  0
 35 36  1  0
 35 37  2  0
 37 38  1  0
 38 39  1  0
 38 40  2  0
 40 33  1  0
M  END
> <Smiles>
Cc1cc(NC(=O)CCN2CCOCC2)ccc1NC(=O)COc1ccc(Cl)cc1C(=O)c1cc(F)cc(F)c1

> <IC50_uM>
0.008913

> <pIC50>
8.049976093

> <Activity>
1

$$$$

  SciTegic10102310092D

 39 43  0  0  0  0            999 V2000
    2.5923    1.5001    0.0000 C   0  0
    3.8939    0.7546    0.0000 C   0  0
    5.1903    1.5091    0.0000 C   0  0
    6.4920    0.7636    0.0000 C   0  0
    7.7891    1.5185    0.0000 C   0  0
    9.0856    2.2729    0.0000 N   0  0
    6.4972   -0.7364    0.0000 C   0  0
    5.2007   -1.4909    0.0000 C   0  0
    5.2059   -2.9909    0.0000 C   0  0
    3.8990   -0.7455    0.0000 C   0  0
    2.6003   -1.4977    0.0000 O   0  0
    1.2990   -0.7500    0.0000 C   0  0
    1.2990    0.7500    0.0000 N   0  0
    0.0000    1.5000    0.0000 C   0  0
   -0.0031    3.0008    0.0000 N   0  0
   -1.3039    3.7494    0.0000 C   0  0  3  0  0  0
   -2.6005    2.9949    0.0000 C   0  0
   -3.9021    3.7404    0.0000 C   0  0
   -3.9073    5.2404    0.0000 N   0  0
   -5.2081    5.9890    0.0000 C   0  0
   -5.2111    7.4898    0.0000 C   0  0
   -6.5102    8.2399    0.0000 C   0  0
   -6.5102    9.7399    0.0000 C   0  0
   -5.2111   10.4899    0.0000 C   0  0
   -5.2111   11.9907    0.0000 S   0  0
   -3.9118   12.7403    0.0000 N   0  0
   -6.5097   12.7416    0.0000 O   0  0
   -5.2104   13.4907    0.0000 O   0  0
   -3.9121    9.7399    0.0000 C   0  0
   -3.9121    8.2399    0.0000 C   0  0
   -2.6108    5.9949    0.0000 C   0  0
   -1.3092    5.2494    0.0000 C   0  0  3  0  0  0
   -0.0128    6.0039    0.0000 F   0  0
   -1.2990    0.7500    0.0000 N   0  0
   -1.2990   -0.7500    0.0000 C   0  0
   -2.4133   -1.7530    0.0000 C   0  0
   -1.8032   -3.1233    0.0000 C   0  0
   -0.3114   -2.9665    0.0000 S   0  0
    0.0000   -1.5000    0.0000 C   0  0
  1  2  1  0
  2  3  2  0
  3  4  1  0
  4  5  1  0
  5  6  3  0
  4  7  2  0
  7  8  1  0
  8  9  1  0
  8 10  2  0
 10  2  1  0
 10 11  1  0
 11 12  1  0
 12 13  2  0
 13 14  1  0
 14 15  1  0
 16 15  1  4
 16 17  1  0
 17 18  1  0
 18 19  1  0
 19 20  1  0
 20 21  1  0
 21 22  2  0
 22 23  1  0
 23 24  2  0
 24 25  1  0
 25 26  1  0
 25 27  2  0
 25 28  2  0
 24 29  1  0
 29 30  2  0
 30 21  1  0
 19 31  1  0
 31 32  1  0
 32 16  1  0
 32 33  1  4
 14 34  2  0
 34 35  1  0
 35 36  1  0
 36 37  2  0
 37 38  1  0
 38 39  1  0
 39 12  1  0
 39 35  2  0
M  END
> <Smiles>
Cc1cc(C#N)cc(C)c1Oc1nc(NC2CCN(Cc3ccc(S(N)(=O)=O)cc3)CC2F)nc2ccsc12

> <IC50_uM>
0.00894

> <pIC50>
8.048662481

> <Activity>
1

$$$$

  SciTegic10102310092D

 28 30  0  0  0  0            999 V2000
    2.5951   -3.0031    0.0000 C   0  0
    2.5973   -1.5031    0.0000 O   0  0
    1.2990   -0.7500    0.0000 C   0  0
    1.2990    0.7500    0.0000 C   0  0
    0.0000    1.5000    0.0000 C   0  0
    0.0000    3.0008    0.0000 C   0  0
    0.0000    4.5008    0.0000 N   0  0
   -1.2990    0.7500    0.0000 C   0  0
   -1.2990   -0.7500    0.0000 C   0  0
   -2.5972   -1.5031    0.0000 O   0  0
   -2.5951   -3.0039    0.0000 C   0  0
   -3.8915   -3.7585    0.0000 C   0  0
   -5.1932   -3.0131    0.0000 Cl  0  0
   -3.8863   -5.2585    0.0000 C   0  0
   -2.5847   -6.0040    0.0000 C   0  0
   -1.2883   -5.2495    0.0000 C   0  0
    0.0125   -5.9981    0.0000 C   0  0
    0.0156   -7.4989    0.0000 C   0  0
    1.3146   -8.2490    0.0000 C   0  0
    1.3146   -9.7490    0.0000 C   0  0
    2.6137  -10.4990    0.0000 C   0  0
    0.0156  -10.4990    0.0000 C   0  0
    0.0156  -11.9990    0.0000 O   0  0
   -1.2834   -9.7490    0.0000 N   0  0
   -1.2835   -8.2490    0.0000 N   0  0
   -1.2935   -3.7495    0.0000 C   0  0
    0.0030   -2.9951    0.0000 F   0  0
    0.0000   -1.5000    0.0000 C   0  0
  1  2  1  0
  2  3  1  0
  3  4  2  0
  4  5  1  0
  5  6  1  0
  6  7  3  0
  5  8  2  0
  8  9  1  0
  9 10  1  0
 10 11  1  0
 11 12  2  0
 12 13  1  0
 12 14  1  0
 14 15  2  0
 15 16  1  0
 16 17  1  0
 17 18  1  0
 18 19  1  0
 19 20  2  0
 20 21  1  0
 20 22  1  0
 22 23  2  0
 22 24  1  0
 24 25  1  0
 25 18  2  0
 16 26  2  0
 26 11  1  0
 26 27  1  0
  9 28  2  0
 28  3  1  0
M  END
> <Smiles>
COc1cc(C#N)cc(Oc2c(Cl)ccc(Cc3cc(C)c(=O)[nH]n3)c2F)c1

> <IC50_uM>
0.009

> <pIC50>
8.045757491

> <Activity>
1

$$$$

  SciTegic10102310092D

 25 28  0  0  0  0            999 V2000
    2.5840   -8.2829    0.0000 C   0  0
    2.8570   -6.8080    0.0000 C   0  0
    4.2107   -6.1619    0.0000 C   0  0
    4.0146   -4.6747    0.0000 N   0  0
    2.5536   -4.4230    0.0000 C   0  0
    1.8032   -3.1233    0.0000 C   0  0
    2.4133   -1.7530    0.0000 N   0  0
    1.2990   -0.7500    0.0000 C   0  0
    1.2990    0.7500    0.0000 C   0  0
    0.0000    1.5000    0.0000 C   0  0
   -1.2990    0.7500    0.0000 C   0  0
   -2.5981    1.5000    0.0000 Cl  0  0
   -1.2990   -0.7500    0.0000 C   0  0
    0.0000   -1.5000    0.0000 C   0  0
    0.3114   -2.9665    0.0000 C   0  0
   -0.6913   -4.0797    0.0000 S   0  0
   -0.2276   -5.5062    0.0000 O   0  0
    0.7759   -4.3916    0.0000 O   0  0
   -2.1595   -3.7683    0.0000 C   0  0
   -3.1627   -4.8835    0.0000 C   0  0
   -4.6300   -4.5722    0.0000 C   0  0
   -5.0942   -3.1458    0.0000 C   0  0
   -4.0910   -2.0307    0.0000 C   0  0
   -2.6236   -2.3419    0.0000 C   0  0
    1.8242   -5.7201    0.0000 N   0  0
  1  2  1  0
  2  3  2  0
  3  4  1  0
  4  5  2  0
  5  6  1  0
  6  7  1  0
  7  8  1  0
  8  9  2  0
  9 10  1  0
 10 11  2  0
 11 12  1  0
 11 13  1  0
 13 14  2  0
 14  8  1  0
 14 15  1  0
 15  6  2  0
 15 16  1  0
 16 17  2  0
 16 18  2  0
 16 19  1  0
 19 20  2  0
 20 21  1  0
 21 22  2  0
 22 23  1  0
 23 24  2  0
 24 19  1  0
  5 25  1  0
 25  2  1  0
M  END
> <Smiles>
Cc1cnc(-c2[nH]c3ccc(Cl)cc3c2S(=O)(=O)c2ccccc2)[nH]1

> <IC50_uM>
0.009

> <pIC50>
8.045757491

> <Activity>
1

$$$$

  SciTegic10102310092D

 28 31  0  0  0  0            999 V2000
   -6.0840   -4.2660    0.0000 N   0  0
   -5.6208   -5.6927    0.0000 C   0  0
   -5.1572   -7.1201    0.0000 C   0  0
   -6.1611   -8.2347    0.0000 C   0  0
   -5.6979   -9.6613    0.0000 C   0  0
   -6.7018  -10.7759    0.0000 Cl  0  0
   -4.2307   -9.9735    0.0000 C   0  0
   -3.2267   -8.8590    0.0000 C   0  0
   -1.7581   -9.1683    0.0000 O   0  0
   -0.7552   -8.0517    0.0000 C   0  0
    0.7130   -8.3588    0.0000 C   0  0
    1.1812   -9.7838    0.0000 Br  0  0
    1.7131   -7.2408    0.0000 C   0  0
    1.2449   -5.8157    0.0000 C   0  0
   -0.2234   -5.5086    0.0000 C   0  0
   -0.6890   -4.0818    0.0000 C   0  0
    0.3114   -2.9665    0.0000 C   0  0
    1.8032   -3.1233    0.0000 N   0  0
    2.4133   -1.7530    0.0000 N   0  0
    1.2990   -0.7500    0.0000 C   0  0
    1.2990    0.7500    0.0000 C   0  0
    0.0000    1.5000    0.0000 N   0  0
   -1.2990    0.7500    0.0000 C   0  0
   -1.2990   -0.7500    0.0000 C   0  0
    0.0000   -1.5000    0.0000 C   0  0
   -1.2234   -6.6267    0.0000 C   0  0
   -2.6917   -6.3197    0.0000 F   0  0
   -3.6901   -7.4323    0.0000 C   0  0
  1  2  3  0
  2  3  1  0
  3  4  2  0
  4  5  1  0
  5  6  1  0
  5  7  2  0
  7  8  1  0
  8  9  1  0
  9 10  1  0
 10 11  2  0
 11 12  1  0
 11 13  1  0
 13 14  2  0
 14 15  1  0
 15 16  1  0
 16 17  1  0
 17 18  2  0
 18 19  1  0
 19 20  1  0
 20 21  2  0
 21 22  1  0
 22 23  2  0
 23 24  1  0
 24 25  2  0
 25 17  1  0
 25 20  1  0
 15 26  2  0
 26 10  1  0
 26 27  1  0
  8 28  2  0
 28  3  1  0
M  END
> <Smiles>
N#Cc1cc(Cl)cc(Oc2c(Br)ccc(Cc3n[nH]c4cnccc34)c2F)c1

> <IC50_uM>
0.009

> <pIC50>
8.045757491

> <Activity>
1

$$$$

  SciTegic10102310092D

 19 20  0  0  1  0            999 V2000
    6.1533    0.7377    0.0000 C   0  0
    5.5397   -0.6311    0.0000 C   0  0
    4.9531   -1.9978    0.0000 C   0  0  2  0  0  0
    5.8076   -3.2156    0.0000 C   0  0
    5.4010   -4.1292    0.0000 O   0  0
    3.9511   -0.8815    0.0000 O   0  0
    2.5987   -1.5004    0.0000 C   0  0  1  0  0  0
    1.2990   -0.7500    0.0000 N   0  0
    1.2990    0.7500    0.0000 C   0  0
    0.0000    1.5000    0.0000 C   0  0
    0.0000    3.0000    0.0000 F   0  0
   -1.2990    0.7500    0.0000 C   0  0
   -2.5981    1.5000    0.0000 N   0  0
   -1.2990   -0.7500    0.0000 N   0  0
    0.0000   -1.5000    0.0000 C   0  0
    0.0000   -3.0000    0.0000 O   0  0
    2.7343   -2.9815    0.0000 C   0  0
    4.2010   -3.2956    0.0000 C   0  0  2  0  0  0
    4.6063   -4.2098    0.0000 O   0  0
  1  2  3  0
  3  2  1  1
  3  4  1  0
  4  5  1  0
  3  6  1  0
  6  7  1  0
  7  8  1  6
  8  9  1  0
  9 10  2  0
 10 11  1  0
 10 12  1  0
 12 13  1  0
 12 14  2  0
 14 15  1  0
 15  8  1  0
 15 16  2  0
  7 17  1  0
 17 18  1  0
 18  3  1  0
 18 19  1  1
M  END
> <Smiles>
C#C[C@]1(CO)O[C@@H](n2cc(F)c(N)nc2=O)C[C@@H]1O

> <IC50_uM>
0.009

> <pIC50>
8.045757491

> <Activity>
1

$$$$

  SciTegic10102310092D

 25 27  0  0  0  0            999 V2000
    2.5981   -1.5000    0.0000 C   0  0
    1.2990   -0.7500    0.0000 C   0  0
    1.2990    0.7500    0.0000 C   0  0
    0.0000    1.5000    0.0000 C   0  0
   -1.2990    0.7500    0.0000 C   0  0
   -2.6003    1.4977    0.0000 C   0  0
   -3.8990    0.7455    0.0000 N   0  0
   -5.2003    1.4932    0.0000 C   0  0
   -6.4994    0.7432    0.0000 C   0  0
   -7.7985    1.4932    0.0000 C   0  0
   -7.7985    2.9932    0.0000 N   0  0
   -6.4995    3.7432    0.0000 C   0  0
   -6.4965    5.2441    0.0000 N   0  0
   -5.1957    5.9927    0.0000 C   0  0
   -5.1904    7.4927    0.0000 C   0  0
   -3.8888    8.2382    0.0000 C   0  0
   -2.5924    7.4838    0.0000 C   0  0
   -1.2900    8.2297    0.0000 C   0  0
    0.0116    8.9753    0.0000 N   0  0
   -2.5975    5.9838    0.0000 C   0  0
   -3.8991    5.2382    0.0000 C   0  0
   -5.2004    2.9933    0.0000 N   0  0
   -1.2990   -0.7500    0.0000 C   0  0
    0.0000   -1.5000    0.0000 C   0  0
    0.0000   -3.0000    0.0000 C   0  0
  1  2  1  0
  2  3  2  0
  3  4  1  0
  4  5  2  0
  5  6  1  0
  6  7  1  0
  7  8  1  0
  8  9  2  0
  9 10  1  0
 10 11  2  0
 11 12  1  0
 12 13  1  0
 13 14  1  0
 14 15  2  0
 15 16  1  0
 16 17  2  0
 17 18  1  0
 18 19  3  0
 17 20  1  0
 20 21  2  0
 21 14  1  0
 12 22  2  0
 22  8  1  0
  5 23  1  0
 23 24  2  0
 24  2  1  0
 24 25  1  0
M  END
> <Smiles>
Cc1ccc(CNc2ccnc(Nc3ccc(C#N)cc3)n2)cc1C

> <IC50_uM>
0.009

> <pIC50>
8.045757491

> <Activity>
1

$$$$

  SciTegic10102310092D

 24 26  0  0  0  0            999 V2000
    2.5981   -1.5000    0.0000 O   0  0
    1.2990   -0.7500    0.0000 C   0  0
    1.2990    0.7500    0.0000 C   0  0
    0.0000    1.5000    0.0000 C   0  0
   -0.0031    3.0008    0.0000 C   0  0
   -1.3039    3.7494    0.0000 C   0  0
   -1.3092    5.2494    0.0000 C   0  0
   -2.6108    5.9949    0.0000 C   0  0
   -3.9073    5.2404    0.0000 C   0  0
   -5.2096    5.9863    0.0000 C   0  0
   -6.5049    5.2298    0.0000 C   0  0
   -7.8077    5.9732    0.0000 C   0  0
   -7.8153    7.4732    0.0000 C   0  0
   -9.1181    8.2166    0.0000 Cl  0  0
   -6.5200    8.2297    0.0000 C   0  0
   -5.2172    7.4863    0.0000 C   0  0
   -3.9220    8.2429    0.0000 Cl  0  0
   -3.9021    3.7404    0.0000 C   0  0
   -2.6005    2.9949    0.0000 C   0  0
   -1.2990    0.7500    0.0000 N   0  0
   -1.2990   -0.7500    0.0000 C   0  0
   -2.5981   -1.5000    0.0000 O   0  0
    0.0000   -1.5000    0.0000 N   0  0
    0.0000   -3.0000    0.0000 O   0  0
  1  2  2  0
  2  3  1  0
  3  4  2  0
  4  5  1  0
  5  6  1  0
  6  7  2  0
  7  8  1  0
  8  9  2  0
  9 10  1  0
 10 11  2  0
 11 12  1  0
 12 13  2  0
 13 14  1  0
 13 15  1  0
 15 16  2  0
 16 10  1  0
 16 17  1  0
  9 18  1  0
 18 19  2  0
 19  6  1  0
  4 20  1  0
 20 21  1  0
 21 22  2  0
 21 23  1  0
 23  2  1  0
 23 24  1  0
M  END
> <Smiles>
O=c1cc(Cc2ccc(-c3ccc(Cl)cc3Cl)cc2)[nH]c(=O)n1O

> <IC50_uM>
0.0092

> <pIC50>
8.036212173

> <Activity>
1

$$$$

  SciTegic10102310092D

 27 29  0  0  0  0            999 V2000
    2.5981   -1.5000    0.0000 C   0  0
    1.2990   -0.7500    0.0000 C   0  0
    1.2990    0.7500    0.0000 C   0  0
    0.0000    1.5000    0.0000 C   0  0
    0.0000    3.0008    0.0000 C   0  0
    0.0000    4.5008    0.0000 N   0  0
   -1.2990    0.7500    0.0000 C   0  0
   -1.2990   -0.7500    0.0000 C   0  0
   -2.5981   -1.5000    0.0000 C   0  0
    0.0000   -1.5000    0.0000 C   0  0
    0.0031   -3.0008    0.0000 O   0  0
    1.3039   -3.7494    0.0000 C   0  0
    2.6005   -2.9949    0.0000 N   0  0
    3.9021   -3.7404    0.0000 C   0  0
    5.2008   -2.9882    0.0000 N   0  0
    6.5021   -3.7360    0.0000 C   0  0
    7.8012   -2.9860    0.0000 C   0  0
    9.1002   -3.7360    0.0000 C   0  0
    9.1002   -5.2360    0.0000 C   0  0
   10.4000   -5.9865    0.0000 C   0  0
   11.6990   -6.7365    0.0000 N   0  0
    7.8012   -5.9860    0.0000 C   0  0
    6.5021   -5.2360    0.0000 C   0  0
    3.9073   -5.2404    0.0000 N   0  0
    2.6108   -5.9949    0.0000 C   0  0
    1.3092   -5.2494    0.0000 C   0  0
    0.0128   -6.0039    0.0000 N   0  0
  1  2  1  0
  2  3  2  0
  3  4  1  0
  4  5  1  0
  5  6  3  0
  4  7  2  0
  7  8  1  0
  8  9  1  0
  8 10  2  0
 10  2  1  0
 10 11  1  0
 11 12  1  0
 12 13  2  0
 13 14  1  0
 14 15  1  0
 15 16  1  0
 16 17  2  0
 17 18  1  0
 18 19  2  0
 19 20  1  0
 20 21  3  0
 19 22  1  0
 22 23  2  0
 23 16  1  0
 14 24  2  0
 24 25  1  0
 25 26  2  0
 26 12  1  0
 26 27  1  0
M  END
> <Smiles>
Cc1cc(C#N)cc(C)c1Oc1nc(Nc2ccc(C#N)cc2)ncc1N

> <IC50_uM>
0.0093

> <pIC50>
8.031517051

> <Activity>
1

$$$$

  SciTegic10102310092D

 24 26  0  0  0  0            999 V2000
    2.5981   -1.5000    0.0000 O   0  0
    1.2990   -0.7500    0.0000 C   0  0
    1.2990    0.7500    0.0000 C   0  0
    0.0000    1.5000    0.0000 C   0  0
   -0.0031    3.0008    0.0000 C   0  0
   -1.3039    3.7494    0.0000 C   0  0
   -1.3092    5.2494    0.0000 C   0  0
   -2.6108    5.9949    0.0000 C   0  0
   -3.9073    5.2404    0.0000 C   0  0
   -5.2096    5.9863    0.0000 C   0  0
   -5.2172    7.4863    0.0000 C   0  0
   -6.5200    8.2297    0.0000 C   0  0
   -7.8153    7.4732    0.0000 C   0  0
   -9.1181    8.2166    0.0000 Cl  0  0
   -7.8077    5.9732    0.0000 C   0  0
   -9.1029    5.2167    0.0000 F   0  0
   -6.5049    5.2298    0.0000 C   0  0
   -3.9021    3.7404    0.0000 C   0  0
   -2.6005    2.9949    0.0000 C   0  0
   -1.2990    0.7500    0.0000 N   0  0
   -1.2990   -0.7500    0.0000 C   0  0
   -2.5981   -1.5000    0.0000 O   0  0
    0.0000   -1.5000    0.0000 N   0  0
    0.0000   -3.0000    0.0000 O   0  0
  1  2  2  0
  2  3  1  0
  3  4  2  0
  4  5  1  0
  5  6  1  0
  6  7  2  0
  7  8  1  0
  8  9  2  0
  9 10  1  0
 10 11  2  0
 11 12  1  0
 12 13  2  0
 13 14  1  0
 13 15  1  0
 15 16  1  0
 15 17  2  0
 17 10  1  0
  9 18  1  0
 18 19  2  0
 19  6  1  0
  4 20  1  0
 20 21  1  0
 21 22  2  0
 21 23  1  0
 23  2  1  0
 23 24  1  0
M  END
> <Smiles>
O=c1cc(Cc2ccc(-c3ccc(Cl)c(F)c3)cc2)[nH]c(=O)n1O

> <IC50_uM>
0.0094

> <pIC50>
8.026872146

> <Activity>
1

$$$$

  SciTegic10102310092D

 30 33  0  0  0  0            999 V2000
   -0.6923   -4.0811    0.0000 C   0  0
    0.3114   -2.9665    0.0000 C   0  0
    1.8032   -3.1233    0.0000 N   0  0
    2.4133   -1.7530    0.0000 C   0  0
    3.8794   -1.4442    0.0000 C   0  0
    4.8823   -2.5608    0.0000 C   0  0
    6.3509   -2.2515    0.0000 C   0  0
    7.3538   -3.3681    0.0000 C   0  0
    8.8224   -3.0588    0.0000 C   0  0
    9.8253   -4.1753    0.0000 C   0  0
   11.2939   -3.8660    0.0000 C   0  0
   11.7596   -2.4402    0.0000 O   0  0
   12.2967   -4.9826    0.0000 C   0  0
   13.7650   -4.6756    0.0000 C   0  0
   14.7651   -5.7936    0.0000 C   0  0
   14.2969   -7.2187    0.0000 C   0  0
   12.8286   -7.5258    0.0000 C   0  0
   11.8286   -6.4078    0.0000 C   0  0
    1.2990   -0.7500    0.0000 N   0  0
    1.2990    0.7500    0.0000 N   0  0
    0.0000    1.5000    0.0000 C   0  0
    0.0000    3.0008    0.0000 N   0  0
   -1.2149    3.8587    0.0000 C   0  0
   -0.7536    5.2860    0.0000 N   0  0
    0.7463    5.2884    0.0000 C   0  0
    1.2121    3.8625    0.0000 C   0  0
    2.6367    3.3928    0.0000 C   0  0
   -1.2990    0.7500    0.0000 C   0  0
   -1.2990   -0.7500    0.0000 C   0  0
    0.0000   -1.5000    0.0000 C   0  0
  1  2  1  0
  2  3  1  0
  3  4  2  0
  4  5  1  0
  5  6  1  0
  6  7  1  0
  7  8  1  0
  8  9  1  0
  9 10  1  0
 10 11  1  0
 11 12  2  0
 11 13  1  0
 13 14  2  0
 14 15  1  0
 15 16  2  0
 16 17  1  0
 17 18  2  0
 18 13  1  0
  4 19  1  0
 19 20  1  0
 20 21  2  0
 21 22  1  0
 22 23  1  0
 23 24  2  0
 24 25  1  0
 25 26  2  0
 26 22  1  0
 26 27  1  0
 21 28  1  0
 28 29  2  0
 29 30  1  0
 30  2  2  0
 30 19  1  0
M  END
> <Smiles>
Cc1nc(CCCCCCC(=O)c2ccccc2)n2nc(-n3cncc3C)ccc12

> <IC50_uM>
0.01

> <pIC50>
8

> <Activity>
1

$$$$

  SciTegic10102310092D

 25 27  0  0  0  0            999 V2000
    3.8978   -2.2504    0.0000 N   0  0
    2.5988   -1.5004    0.0000 C   0  0
    1.2990   -0.7500    0.0000 C   0  0
    1.2990    0.7500    0.0000 C   0  0
    0.0000    1.5000    0.0000 C   0  0
   -1.2990    0.7500    0.0000 C   0  0
   -2.6003    1.4977    0.0000 N   0  0
   -3.8990    0.7455    0.0000 C   0  0
   -5.2007    1.4909    0.0000 C   0  0
   -6.4972    0.7364    0.0000 C   0  0
   -7.8010    1.4796    0.0000 C   0  0
   -9.0971    0.7229    0.0000 C   0  0
  -10.4014    1.4638    0.0000 C   0  0
  -10.4118    2.9638    0.0000 Cl  0  0
  -11.6952    0.7048    0.0000 C   0  0
  -11.6848   -0.7951    0.0000 C   0  0
  -10.3806   -1.5361    0.0000 C   0  0
   -9.0868   -0.7772    0.0000 C   0  0
   -7.7826   -1.5182    0.0000 Cl  0  0
   -6.4920   -0.7636    0.0000 N   0  0
   -5.1903   -1.5091    0.0000 C   0  0
   -5.1851   -3.0091    0.0000 N   0  0
   -3.8939   -0.7546    0.0000 N   0  0
   -1.2990   -0.7500    0.0000 C   0  0
    0.0000   -1.5000    0.0000 C   0  0
  1  2  3  0
  2  3  1  0
  3  4  2  0
  4  5  1  0
  5  6  2  0
  6  7  1  0
  7  8  1  0
  8  9  2  0
  9 10  1  0
 10 11  1  0
 11 12  1  0
 12 13  2  0
 13 14  1  0
 13 15  1  0
 15 16  2  0
 16 17  1  0
 17 18  2  0
 18 12  1  0
 18 19  1  0
 10 20  2  0
 20 21  1  0
 21 22  1  0
 21 23  2  0
 23  8  1  0
  6 24  1  0
 24 25  2  0
 25  3  1  0
M  END
> <Smiles>
N#Cc1ccc(Nc2cc(Cc3c(Cl)cccc3Cl)nc(N)n2)cc1

> <IC50_uM>
0.01

> <pIC50>
8

> <Activity>
1

$$$$

  SciTegic10102310092D

 31 34  0  0  0  0            999 V2000
    3.8805   -1.4410    0.0000 O   0  0
    2.4133   -1.7530    0.0000 C   0  0
    1.2990   -0.7500    0.0000 C   0  0
    1.2990    0.7500    0.0000 C   0  0
    0.0000    1.5000    0.0000 C   0  0
   -1.2990    0.7500    0.0000 C   0  0
   -1.2990   -0.7500    0.0000 C   0  0
    0.0000   -1.5000    0.0000 C   0  0
    0.3114   -2.9665    0.0000 C   0  0
   -0.6923   -4.0811    0.0000 O   0  0
    1.8032   -3.1233    0.0000 N   0  0
    2.5551   -4.4192    0.0000 C   0  0
    4.0559   -4.4171    0.0000 C   0  0
    4.8090   -5.7153    0.0000 O   0  0
    6.3098   -5.7131    0.0000 C   0  0
    7.0575   -4.4128    0.0000 S   0  0
    7.0629   -7.0113    0.0000 N   0  0
    8.5637   -7.0091    0.0000 C   0  0
    9.3115   -5.7088    0.0000 O   0  0
    9.3168   -8.3073    0.0000 C   0  0
   10.7977   -8.4452    0.0000 C   0  0
   11.1096   -9.9124    0.0000 C   0  0
    9.8106  -10.6624    0.0000 C   0  0
    8.6958   -9.6587    0.0000 S   0  0
    6.3148   -8.3123    0.0000 C   0  0
    7.0653   -9.6112    0.0000 C   0  0
    6.3158  -10.9105    0.0000 C   0  0
    4.8158  -10.9111    0.0000 C   0  0
    4.0663  -12.2104    0.0000 I   0  0
    4.0653   -9.6124    0.0000 C   0  0
    4.8148   -8.3130    0.0000 C   0  0
  1  2  2  0
  2  3  1  0
  3  4  2  0
  4  5  1  0
  5  6  2  0
  6  7  1  0
  7  8  2  0
  8  3  1  0
  8  9  1  0
  9 10  2  0
  9 11  1  0
 11  2  1  0
 11 12  1  0
 12 13  1  0
 13 14  1  0
 14 15  1  0
 15 16  2  0
 15 17  1  0
 17 18  1  0
 18 19  2  0
 18 20  1  0
 20 21  2  0
 21 22  1  0
 22 23  2  0
 23 24  1  0
 24 20  1  0
 17 25  1  0
 25 26  2  0
 26 27  1  0
 27 28  2  0
 28 29  1  0
 28 30  1  0
 30 31  2  0
 31 25  1  0
M  END
> <Smiles>
O=C1c2ccccc2C(=O)N1CCOC(=S)N(C(=O)c1cccs1)c1ccc(I)cc1

> <IC50_uM>
0.01

> <pIC50>
8

> <Activity>
1

$$$$

  SciTegic10102310092D

 31 34  0  0  0  0            999 V2000
    3.3024   -5.7198    0.0000 N   0  0
    2.5524   -4.4208    0.0000 C   0  0
    1.8032   -3.1233    0.0000 C   0  0
    2.4133   -1.7530    0.0000 C   0  0
    1.2990   -0.7500    0.0000 C   0  0
    1.2990    0.7500    0.0000 C   0  0
    2.5972    1.5031    0.0000 O   0  0
    2.5951    3.0039    0.0000 C   0  0
    1.2934    3.7495    0.0000 C   0  0
    1.2883    5.2495    0.0000 C   0  0
    2.5847    6.0040    0.0000 C   0  0
    2.5795    7.5040    0.0000 F   0  0
    3.8863    5.2585    0.0000 C   0  0
    3.8915    3.7585    0.0000 C   0  0
    5.1954    3.0153    0.0000 O   0  0
    6.4915    3.7721    0.0000 C   0  0
    7.7954    3.0289    0.0000 C   0  0
    9.0914    3.7857    0.0000 N   0  0
    9.0810    5.2858    0.0000 C   0  0
   10.3748    6.0448    0.0000 C   0  0
   11.6791    5.3038    0.0000 C   0  0
   12.9729    6.0629    0.0000 O   0  0
   11.6895    3.8039    0.0000 N   0  0
   10.3957    3.0449    0.0000 C   0  0
   10.4062    1.5449    0.0000 O   0  0
    0.0000    1.5000    0.0000 C   0  0
   -1.2990    0.7500    0.0000 C   0  0
   -2.5981    1.5000    0.0000 F   0  0
   -1.2990   -0.7500    0.0000 C   0  0
    0.0000   -1.5000    0.0000 N   0  0
    0.3114   -2.9665    0.0000 C   0  0
  1  2  3  0
  2  3  1  0
  3  4  1  0
  4  5  2  0
  5  6  1  0
  6  7  1  0
  7  8  1  0
  8  9  2  0
  9 10  1  0
 10 11  2  0
 11 12  1  0
 11 13  1  0
 13 14  2  0
 14  8  1  0
 14 15  1  0
 15 16  1  0
 16 17  1  0
 17 18  1  0
 18 19  1  0
 19 20  2  0
 20 21  1  0
 21 22  2  0
 21 23  1  0
 23 24  1  0
 24 18  1  0
 24 25  2  0
  6 26  2  0
 26 27  1  0
 27 28  1  0
 27 29  2  0
 29 30  1  0
 30  5  1  0
 30 31  1  0
 31  3  2  0
M  END
> <Smiles>
N#Cc1cc2c(Oc3ccc(F)cc3OCCn3ccc(=O)[nH]c3=O)cc(F)cn2c1

> <IC50_uM>
0.01

> <pIC50>
8

> <Activity>
1

$$$$

  SciTegic10102310092D

 26 27  0  0  0  0            999 V2000
    3.8983   -0.7566    0.0000 C   0  0
    2.5973   -1.5031    0.0000 C   0  0
    1.2990   -0.7500    0.0000 C   0  0
    1.2990    0.7500    0.0000 C   0  0
    2.5981    1.5000    0.0000 C   0  0
    0.0000    1.5000    0.0000 N   0  0
   -1.2990    0.7500    0.0000 C   0  0
   -2.5981    1.5000    0.0000 O   0  0
   -1.2990   -0.7500    0.0000 C   0  0
   -2.5972   -1.5031    0.0000 N   0  0
   -3.8976   -0.7554    0.0000 C   0  0
   -2.5951   -3.0039    0.0000 C   0  0
   -3.8933   -3.7570    0.0000 C   0  0
   -3.8912   -5.2578    0.0000 C   0  0
   -5.1894   -6.0109    0.0000 C   0  0
   -5.1872   -7.5117    0.0000 C   0  0
   -6.4847   -8.2644    0.0000 O   0  0
    0.0000   -1.5000    0.0000 C   0  0
    0.0031   -3.0008    0.0000 C   0  0
    1.3039   -3.7494    0.0000 C   0  0
    1.3092   -5.2494    0.0000 C   0  0
    2.6108   -5.9949    0.0000 C   0  0
    3.9073   -5.2404    0.0000 C   0  0
    3.9021   -3.7404    0.0000 C   0  0
    5.1985   -2.9859    0.0000 C   0  0
    2.6004   -2.9949    0.0000 C   0  0
  1  2  1  0
  2  3  1  0
  3  4  2  0
  4  5  1  0
  4  6  1  0
  6  7  1  0
  7  8  2  0
  7  9  1  0
  9 10  1  0
 10 11  1  0
 10 12  1  0
 12 13  1  0
 13 14  1  0
 14 15  1  0
 15 16  1  0
 16 17  1  0
  9 18  2  0
 18  3  1  0
 18 19  1  0
 19 20  1  0
 20 21  2  0
 21 22  1  0
 22 23  2  0
 23 24  1  0
 24 25  1  0
 24 26  2  0
 26 20  1  0
M  END
> <Smiles>
CCc1c(C)[nH]c(=O)c(N(C)CCCCCO)c1Cc1cccc(C)c1

> <IC50_uM>
0.01

> <pIC50>
8

> <Activity>
1

$$$$

  SciTegic10102310092D

 23 25  0  0  0  0            999 V2000
    1.1583   -9.7884    0.0000 C   0  0
    0.6960   -8.3614    0.0000 C   0  0
   -0.7710   -8.0483    0.0000 C   0  0
   -1.2333   -6.6213    0.0000 C   0  0
   -2.7003   -6.3082    0.0000 C   0  0
   -0.2287   -5.5075    0.0000 C   0  0
   -0.6913   -4.0797    0.0000 S   0  0
   -2.1584   -3.7671    0.0000 O   0  0
   -1.6957   -5.1937    0.0000 O   0  0
    0.3114   -2.9665    0.0000 N   0  0
    1.8032   -3.1233    0.0000 C   0  0
    2.5532   -4.4223    0.0000 O   0  0
    2.4133   -1.7530    0.0000 N   0  0
    1.2990   -0.7500    0.0000 C   0  0
    1.2990    0.7500    0.0000 C   0  0
    0.0000    1.5000    0.0000 C   0  0
   -1.2990    0.7500    0.0000 C   0  0
   -2.5981    1.5000    0.0000 Cl  0  0
   -1.2990   -0.7500    0.0000 C   0  0
    0.0000   -1.5000    0.0000 C   0  0
    1.2383   -5.8206    0.0000 C   0  0
    2.2429   -4.7067    0.0000 C   0  0
    1.7006   -7.2475    0.0000 C   0  0
  1  2  1  0
  2  3  2  0
  3  4  1  0
  4  5  1  0
  4  6  2  0
  6  7  1  0
  7  8  2  0
  7  9  2  0
  7 10  1  0
 10 11  1  0
 11 12  2  0
 11 13  1  0
 13 14  1  0
 14 15  2  0
 15 16  1  0
 16 17  2  0
 17 18  1  0
 17 19  1  0
 19 20  2  0
 20 14  1  0
 20 10  1  0
  6 21  1  0
 21 22  1  0
 21 23  2  0
 23  2  1  0
M  END
> <Smiles>
Cc1cc(C)c(S(=O)(=O)n2c(=O)[nH]c3ccc(Cl)cc32)c(C)c1

> <IC50_uM>
0.01

> <pIC50>
8

> <Activity>
1

$$$$

  SciTegic10102310092D

 33 36  0  0  0  0            999 V2000
    3.1676   -7.5606    0.0000 C   0  0
    1.7006   -7.2475    0.0000 C   0  0
    0.6960   -8.3614    0.0000 C   0  0
   -0.7710   -8.0483    0.0000 C   0  0
   -1.7756   -9.1622    0.0000 C   0  0
   -1.2333   -6.6213    0.0000 C   0  0
   -0.2287   -5.5075    0.0000 C   0  0
   -0.6913   -4.0797    0.0000 S   0  0
   -2.1584   -3.7671    0.0000 O   0  0
   -1.6957   -5.1937    0.0000 O   0  0
    0.3114   -2.9665    0.0000 C   0  0
    1.8032   -3.1233    0.0000 C   0  0
    2.5551   -4.4192    0.0000 C   0  0
    1.8074   -5.7196    0.0000 O   0  0
    4.0559   -4.4171    0.0000 N   0  0
    4.8090   -5.7153    0.0000 C   0  0
    6.3098   -5.7131    0.0000 N   0  0
    7.0644   -7.0095    0.0000 C   0  0
    8.5644   -7.0043    0.0000 C   0  0
    9.3099   -5.7026    0.0000 C   0  0
    8.5554   -4.4062    0.0000 C   0  0
    7.0554   -4.4114    0.0000 C   0  0
    2.4133   -1.7530    0.0000 N   0  0
    1.2990   -0.7500    0.0000 C   0  0
    1.2990    0.7500    0.0000 C   0  0
    0.0000    1.5000    0.0000 C   0  0
   -1.2990    0.7500    0.0000 C   0  0
   -2.6003    1.4977    0.0000 N   0  3
   -3.8983    0.7459    0.0000 O   0  0
   -2.6030    2.9977    0.0000 O   0  5
   -1.2990   -0.7500    0.0000 C   0  0
    0.0000   -1.5000    0.0000 C   0  0
    1.2383   -5.8206    0.0000 C   0  0
  1  2  1  0
  2  3  2  0
  3  4  1  0
  4  5  1  0
  4  6  2  0
  6  7  1  0
  7  8  1  0
  8  9  2  0
  8 10  2  0
  8 11  1  0
 11 12  2  0
 12 13  1  0
 13 14  2  0
 13 15  1  0
 15 16  1  0
 16 17  1  0
 17 18  1  0
 18 19  1  0
 19 20  1  0
 20 21  1  0
 21 22  1  0
 22 17  1  0
 12 23  1  0
 23 24  1  0
 24 25  2  0
 25 26  1  0
 26 27  2  0
 27 28  1  0
 28 29  2  0
 28 30  1  0
 27 31  1  0
 31 32  2  0
 32 11  1  0
 32 24  1  0
  7 33  2  0
 33  2  1  0
M  CHG  2  28   1  30  -1
M  END
> <Smiles>
Cc1cc(C)cc(S(=O)(=O)c2c(C(=O)NCN3CCCCC3)[nH]c3ccc([N+](=O)[O-])cc23)c1

> <IC50_uM>
0.01

> <pIC50>
8

> <Activity>
1

$$$$

  SciTegic10102310092D

 33 36  0  0  0  0            999 V2000
    3.8805   -1.4410    0.0000 O   0  0
    2.4133   -1.7530    0.0000 C   0  0
    1.2990   -0.7500    0.0000 C   0  0
    1.2990    0.7500    0.0000 C   0  0
    0.0000    1.5000    0.0000 C   0  0
   -1.2990    0.7500    0.0000 C   0  0
   -1.2990   -0.7500    0.0000 C   0  0
    0.0000   -1.5000    0.0000 C   0  0
    0.3114   -2.9665    0.0000 C   0  0
   -0.6923   -4.0811    0.0000 O   0  0
    1.8032   -3.1233    0.0000 N   0  0
    2.5551   -4.4192    0.0000 C   0  0
    4.0559   -4.4171    0.0000 C   0  0
    4.8090   -5.7153    0.0000 O   0  0
    6.3098   -5.7131    0.0000 C   0  0
    7.0575   -4.4128    0.0000 S   0  0
    7.0629   -7.0113    0.0000 N   0  0
    8.5637   -7.0091    0.0000 C   0  0
    9.3115   -5.7088    0.0000 O   0  0
    9.3168   -8.3073    0.0000 C   0  0
   10.7977   -8.4452    0.0000 C   0  0
   11.1096   -9.9124    0.0000 C   0  0
    9.8106  -10.6624    0.0000 C   0  0
    8.6958   -9.6587    0.0000 S   0  0
    6.3148   -8.3123    0.0000 C   0  0
    7.0653   -9.6112    0.0000 C   0  0
    6.3158  -10.9105    0.0000 C   0  0
    4.8158  -10.9111    0.0000 C   0  0
    4.0632  -12.2096    0.0000 N   0  3
    2.5632  -12.2081    0.0000 O   0  0
    4.8115  -13.5097    0.0000 O   0  5
    4.0653   -9.6124    0.0000 C   0  0
    4.8148   -8.3130    0.0000 C   0  0
  1  2  2  0
  2  3  1  0
  3  4  2  0
  4  5  1  0
  5  6  2  0
  6  7  1  0
  7  8  2  0
  8  3  1  0
  8  9  1  0
  9 10  2  0
  9 11  1  0
 11  2  1  0
 11 12  1  0
 12 13  1  0
 13 14  1  0
 14 15  1  0
 15 16  2  0
 15 17  1  0
 17 18  1  0
 18 19  2  0
 18 20  1  0
 20 21  2  0
 21 22  1  0
 22 23  2  0
 23 24  1  0
 24 20  1  0
 17 25  1  0
 25 26  2  0
 26 27  1  0
 27 28  2  0
 28 29  1  0
 29 30  2  0
 29 31  1  0
 28 32  1  0
 32 33  2  0
 33 25  1  0
M  CHG  2  29   1  31  -1
M  END
> <Smiles>
O=C1c2ccccc2C(=O)N1CCOC(=S)N(C(=O)c1cccs1)c1ccc([N+](=O)[O-])cc1

> <IC50_uM>
0.01

> <pIC50>
8

> <Activity>
1

$$$$

  SciTegic10102310092D

 29 32  0  0  0  0            999 V2000
   -0.6923   -4.0811    0.0000 C   0  0
    0.3114   -2.9665    0.0000 C   0  0
    1.8032   -3.1233    0.0000 N   0  0
    2.4133   -1.7530    0.0000 C   0  0
    3.8794   -1.4442    0.0000 C   0  0
    4.8823   -2.5608    0.0000 C   0  0
    6.3509   -2.2515    0.0000 C   0  0
    7.3538   -3.3681    0.0000 C   0  0
    8.8224   -3.0588    0.0000 C   0  0
    9.8253   -4.1753    0.0000 C   0  0
   11.2939   -3.8660    0.0000 C   0  0
   11.7596   -2.4402    0.0000 O   0  0
   12.2967   -4.9826    0.0000 C   0  0
   13.7650   -4.6756    0.0000 C   0  0
   14.7651   -5.7936    0.0000 C   0  0
   14.2969   -7.2187    0.0000 C   0  0
   12.8286   -7.5258    0.0000 C   0  0
   11.8286   -6.4078    0.0000 C   0  0
    1.2990   -0.7500    0.0000 N   0  0
    1.2990    0.7500    0.0000 N   0  0
    0.0000    1.5000    0.0000 C   0  0
    0.0000    3.0008    0.0000 N   0  0
    1.2121    3.8625    0.0000 C   0  0
    0.7463    5.2884    0.0000 C   0  0
   -0.7537    5.2860    0.0000 N   0  0
   -1.2149    3.8587    0.0000 C   0  0
   -1.2990    0.7500    0.0000 C   0  0
   -1.2990   -0.7500    0.0000 C   0  0
    0.0000   -1.5000    0.0000 C   0  0
  1  2  1  0
  2  3  1  0
  3  4  2  0
  4  5  1  0
  5  6  1  0
  6  7  1  0
  7  8  1  0
  8  9  1  0
  9 10  1  0
 10 11  1  0
 11 12  2  0
 11 13  1  0
 13 14  2  0
 14 15  1  0
 15 16  2  0
 16 17  1  0
 17 18  2  0
 18 13  1  0
  4 19  1  0
 19 20  1  0
 20 21  2  0
 21 22  1  0
 22 23  1  0
 23 24  2  0
 24 25  1  0
 25 26  2  0
 26 22  1  0
 21 27  1  0
 27 28  2  0
 28 29  1  0
 29  2  2  0
 29 19  1  0
M  END
> <Smiles>
Cc1nc(CCCCCCC(=O)c2ccccc2)n2nc(-n3ccnc3)ccc12

> <IC50_uM>
0.01

> <pIC50>
8

> <Activity>
1

$$$$

  SciTegic10102310092D

 27 30  0  0  0  0            999 V2000
   -5.7094   -9.6564    0.0000 C   0  0
   -6.1704   -8.2290    0.0000 C   0  0
   -7.6370   -7.9146    0.0000 C   0  0
   -8.0981   -6.4872    0.0000 C   0  0
   -9.5656   -6.1726    0.0000 C   0  0
  -11.0322   -5.8582    0.0000 N   0  0
   -7.0924   -5.3742    0.0000 C   0  0
   -5.6258   -5.6886    0.0000 C   0  0
   -5.1646   -7.1161    0.0000 C   0  0
   -3.6967   -7.4283    0.0000 C   0  0
   -3.2334   -8.8550    0.0000 C   0  0
   -1.7662   -9.1671    0.0000 C   0  0
   -0.7624   -8.0525    0.0000 N   0  0
   -1.2256   -6.6258    0.0000 C   0  0
   -0.2234   -5.5086    0.0000 N   0  0
   -0.6890   -4.0818    0.0000 C   0  0
    0.3114   -2.9665    0.0000 C   0  0
    1.8032   -3.1233    0.0000 N   0  0
    2.4133   -1.7530    0.0000 N   0  0
    1.2990   -0.7500    0.0000 C   0  0
    1.2990    0.7500    0.0000 N   0  0
    0.0000    1.5000    0.0000 C   0  0
    0.0000    3.0000    0.0000 F   0  0
   -1.2990    0.7500    0.0000 C   0  0
   -1.2990   -0.7500    0.0000 C   0  0
    0.0000   -1.5000    0.0000 C   0  0
   -2.6928   -6.3138    0.0000 C   0  0
  1  2  1  0
  2  3  2  0
  3  4  1  0
  4  5  1  0
  5  6  3  0
  4  7  2  0
  7  8  1  0
  8  9  2  0
  9  2  1  0
  9 10  1  0
 10 11  2  0
 11 12  1  0
 12 13  2  0
 13 14  1  0
 14 15  1  0
 15 16  1  0
 16 17  1  0
 17 18  2  0
 18 19  1  0
 19 20  1  0
 20 21  2  0
 21 22  1  0
 22 23  1  0
 22 24  2  0
 24 25  1  0
 25 26  2  0
 26 17  1  0
 26 20  1  0
 14 27  2  0
 27 10  1  0
M  END
> <Smiles>
Cc1cc(C#N)ccc1-c1ccnc(NCc2n[nH]c3nc(F)ccc23)c1

> <IC50_uM>
0.01

> <pIC50>
8

> <Activity>
1

$$$$

  SciTegic10102310092D

 21 22  0  0  0  0            999 V2000
    3.8983   -0.7566    0.0000 C   0  0
    2.5973   -1.5031    0.0000 C   0  0
    1.2990   -0.7500    0.0000 C   0  0
    1.2990    0.7500    0.0000 C   0  0
    2.5981    1.5000    0.0000 C   0  0
    0.0000    1.5000    0.0000 N   0  0
   -1.2990    0.7500    0.0000 C   0  0
   -2.5981    1.5000    0.0000 O   0  0
   -1.2990   -0.7500    0.0000 C   0  0
   -2.5972   -1.5031    0.0000 N   0  0
   -2.5951   -3.0031    0.0000 C   0  0
    0.0000   -1.5000    0.0000 C   0  0
    0.0031   -3.0008    0.0000 C   0  0
    1.3039   -3.7494    0.0000 C   0  0
    1.3092   -5.2494    0.0000 C   0  0
    2.6108   -5.9949    0.0000 C   0  0
    2.6160   -7.4949    0.0000 C   0  0
    3.9073   -5.2404    0.0000 C   0  0
    3.9021   -3.7404    0.0000 C   0  0
    5.1985   -2.9859    0.0000 C   0  0
    2.6004   -2.9949    0.0000 C   0  0
  1  2  1  0
  2  3  1  0
  3  4  2  0
  4  5  1  0
  4  6  1  0
  6  7  1  0
  7  8  2  0
  7  9  1  0
  9 10  1  0
 10 11  1  0
  9 12  2  0
 12  3  1  0
 12 13  1  0
 13 14  1  0
 14 15  2  0
 15 16  1  0
 16 17  1  0
 16 18  2  0
 18 19  1  0
 19 20  1  0
 19 21  2  0
 21 14  1  0
M  END
> <Smiles>
CCc1c(C)[nH]c(=O)c(NC)c1Cc1cc(C)cc(C)c1

> <IC50_uM>
0.01

> <pIC50>
8

> <Activity>
1

$$$$

  SciTegic10102310092D

 33 36  0  0  0  0            999 V2000
    3.1676   -7.5606    0.0000 C   0  0
    1.7006   -7.2475    0.0000 C   0  0
    0.6960   -8.3614    0.0000 C   0  0
   -0.7710   -8.0483    0.0000 C   0  0
   -1.7756   -9.1622    0.0000 C   0  0
   -1.2333   -6.6213    0.0000 C   0  0
   -0.2287   -5.5075    0.0000 C   0  0
   -0.6913   -4.0797    0.0000 S   0  0
   -2.1584   -3.7671    0.0000 O   0  0
   -1.6957   -5.1937    0.0000 O   0  0
    0.3114   -2.9665    0.0000 C   0  0
    1.8032   -3.1233    0.0000 C   0  0
    2.5551   -4.4192    0.0000 C   0  0
    1.8074   -5.7196    0.0000 O   0  0
    4.0559   -4.4171    0.0000 N   0  0
    4.8090   -5.7153    0.0000 C   0  0
    6.3098   -5.7131    0.0000 C   0  0
    7.0629   -7.0113    0.0000 C   0  0
    8.5630   -7.0113    0.0000 C   0  0
    9.3130   -8.3103    0.0000 C   0  0
    8.5631   -9.6094    0.0000 C   0  0
    7.0631   -9.6094    0.0000 C   0  0
    6.3131  -10.9085    0.0000 Cl  0  0
    6.3130   -8.3104    0.0000 C   0  0
    2.4133   -1.7530    0.0000 N   0  0
    1.2990   -0.7500    0.0000 C   0  0
    1.2990    0.7500    0.0000 C   0  0
    0.0000    1.5000    0.0000 C   0  0
   -1.2990    0.7500    0.0000 C   0  0
   -2.5981    1.5000    0.0000 Cl  0  0
   -1.2990   -0.7500    0.0000 C   0  0
    0.0000   -1.5000    0.0000 C   0  0
    1.2383   -5.8206    0.0000 C   0  0
  1  2  1  0
  2  3  2  0
  3  4  1  0
  4  5  1  0
  4  6  2  0
  6  7  1  0
  7  8  1  0
  8  9  2  0
  8 10  2  0
  8 11  1  0
 11 12  2  0
 12 13  1  0
 13 14  2  0
 13 15  1  0
 15 16  1  0
 16 17  1  0
 17 18  1  0
 18 19  2  0
 19 20  1  0
 20 21  2  0
 21 22  1  0
 22 23  1  0
 22 24  2  0
 24 18  1  0
 12 25  1  0
 25 26  1  0
 26 27  2  0
 27 28  1  0
 28 29  2  0
 29 30  1  0
 29 31  1  0
 31 32  2  0
 32 11  1  0
 32 26  1  0
  7 33  2  0
 33  2  1  0
M  END
> <Smiles>
Cc1cc(C)cc(S(=O)(=O)c2c(C(=O)NCCc3cccc(Cl)c3)[nH]c3ccc(Cl)cc23)c1

> <IC50_uM>
0.01

> <pIC50>
8

> <Activity>
1

$$$$

  SciTegic10102310092D

 28 30  0  0  0  0            999 V2000
    7.7996   -1.4883    0.0000 C   0  0
    6.4990   -0.7409    0.0000 C   0  0
    5.2003   -1.4932    0.0000 C   0  0
    3.8990   -0.7455    0.0000 O   0  0
    2.6003   -1.4977    0.0000 C   0  0
    1.2990   -0.7500    0.0000 C   0  0
    1.2990    0.7500    0.0000 C   0  0
    0.0000    1.5000    0.0000 N   0  0
    0.0000    3.0008    0.0000 C   0  0  3  0  0  0
   -1.2149    3.8587    0.0000 C   0  0
   -0.7536    5.2860    0.0000 C   0  0
    0.7463    5.2884    0.0000 O   0  0
    1.2121    3.8625    0.0000 N   0  0
    2.6351    3.3939    0.0000 C   0  0
    2.9406    1.9253    0.0000 O   0  0
    3.7552    4.3929    0.0000 O   0  0
    5.1806    3.9234    0.0000 C   0  0
    6.3007    4.9224    0.0000 C   0  0
    7.7261    4.4552    0.0000 C   0  0
    8.8434    5.4559    0.0000 C   0  0
    8.5354    6.9239    0.0000 C   0  0
    7.1101    7.3912    0.0000 C   0  0
    5.9927    6.3905    0.0000 C   0  0
   -1.2990    0.7500    0.0000 C   0  0
   -2.5981    1.5000    0.0000 O   0  0
   -1.2990   -0.7500    0.0000 N   0  0
    0.0000   -1.5000    0.0000 C   0  0
    0.0000   -3.0000    0.0000 O   0  0
  1  2  2  0
  2  3  1  0
  3  4  1  0
  4  5  1  0
  5  6  1  0
  6  7  2  0
  7  8  1  0
  9  8  1  4
  9 10  1  0
 10 11  1  0
 11 12  1  0
 12 13  1  0
 13  9  1  0
 13 14  1  0
 14 15  2  0
 14 16  1  0
 16 17  1  0
 17 18  1  0
 18 19  2  0
 19 20  1  0
 20 21  2  0
 21 22  1  0
 22 23  2  0
 23 18  1  0
  8 24  1  0
 24 25  2  0
 24 26  1  0
 26 27  1  0
 27  6  1  0
 27 28  2  0
M  END
> <Smiles>
C=CCOCc1cn(C2CCON2C(=O)OCc2ccccc2)c(=O)[nH]c1=O

> <IC50_uM>
0.01

> <pIC50>
8

> <Activity>
1

$$$$

  SciTegic10102310092D

 30 32  0  0  0  0            999 V2000
    2.5981   -1.5000    0.0000 C   0  0
    1.2990   -0.7500    0.0000 C   0  0
    1.2990    0.7500    0.0000 C   0  0
    0.0000    1.5000    0.0000 C   0  0
    0.0000    3.0000    0.0000 C   0  0
   -1.2990    0.7500    0.0000 C   0  0
   -2.5987    1.5004    0.0000 N   0  0
   -3.9492    0.8772    0.0000 N   0  0
   -4.9546    1.9903    0.0000 N   0  0
   -4.2067    3.2905    0.0000 N   0  0
   -2.7390    2.9810    0.0000 C   0  0
   -1.6216    3.9790    0.0000 S   0  0
   -1.9268    5.4485    0.0000 C   0  0
   -0.8074    6.4482    0.0000 C   0  0
    0.6172    5.9785    0.0000 O   0  0
   -1.1126    7.9177    0.0000 N   0  0
    0.0068    8.9174    0.0000 C   0  0
    1.4306    8.4453    0.0000 C   0  0
    2.5514    9.4422    0.0000 C   0  0
    2.2485   10.9113    0.0000 C   0  0
    3.3699   11.9088    0.0000 S   0  0
    3.0665   13.3777    0.0000 N   0  0
    4.7939   11.4375    0.0000 O   0  0
    4.4902   12.9062    0.0000 O   0  0
    0.8247   11.3835    0.0000 C   0  0
   -0.2961   10.3866    0.0000 C   0  0
   -1.7198   10.8588    0.0000 Cl  0  0
   -1.2990   -0.7500    0.0000 C   0  0
   -2.5981   -1.5000    0.0000 C   0  0
    0.0000   -1.5000    0.0000 C   0  0
  1  2  1  0
  2  3  2  0
  3  4  1  0
  4  5  1  0
  4  6  2  0
  6  7  1  0
  7  8  1  0
  8  9  2  0
  9 10  1  0
 10 11  2  0
 11  7  1  0
 11 12  1  0
 12 13  1  0
 13 14  1  0
 14 15  2  0
 14 16  1  0
 16 17  1  0
 17 18  2  0
 18 19  1  0
 19 20  2  0
 20 21  1  0
 21 22  1  0
 21 23  2  0
 21 24  2  0
 20 25  1  0
 25 26  2  0
 26 17  1  0
 26 27  1  0
  6 28  1  4
 28 29  1  0
 28 30  2  0
 30  2  1  0
M  END
> <Smiles>
Cc1cc(C)c(-n2nnnc2SCC(=O)Nc2ccc(S(N)(=O)=O)cc2Cl)c(C)c1

> <IC50_uM>
0.01037

> <pIC50>
7.984221244

> <Activity>
1

$$$$

  SciTegic10102310092D

 36 40  0  0  0  0            999 V2000
    2.5923    1.5001    0.0000 C   0  0
    3.8939    0.7546    0.0000 C   0  0
    5.1903    1.5091    0.0000 C   0  0
    6.4920    0.7636    0.0000 C   0  0
    7.7907    1.5158    0.0000 C   0  0
    9.0920    0.7680    0.0000 C   0  0
   10.3907    1.5203    0.0000 C   0  0
   11.6886    2.2721    0.0000 N   0  0
    6.4972   -0.7364    0.0000 C   0  0
    5.2007   -1.4909    0.0000 C   0  0
    5.2059   -2.9909    0.0000 C   0  0
    3.8990   -0.7455    0.0000 C   0  0
    2.6003   -1.4977    0.0000 O   0  0
    1.2990   -0.7500    0.0000 C   0  0
    1.2990    0.7500    0.0000 N   0  0
    0.0000    1.5000    0.0000 C   0  0
   -0.0031    3.0008    0.0000 N   0  0
   -1.3039    3.7494    0.0000 C   0  0
   -1.3092    5.2494    0.0000 C   0  0
   -2.6108    5.9949    0.0000 C   0  0
   -3.9073    5.2404    0.0000 N   0  0
   -5.2112    5.9836    0.0000 C   0  0
   -6.5072    5.2269    0.0000 C   0  0
   -7.8115    5.9678    0.0000 C   0  0
   -9.1053    5.2088    0.0000 C   0  0
   -9.0949    3.7089    0.0000 C   0  0
   -7.7907    2.9679    0.0000 N   0  0
   -6.4969    3.7269    0.0000 C   0  0
   -3.9021    3.7404    0.0000 C   0  0
   -2.6005    2.9949    0.0000 C   0  0
   -1.2990    0.7500    0.0000 N   0  0
   -1.2990   -0.7500    0.0000 C   0  0
   -2.4133   -1.7530    0.0000 C   0  0
   -1.8032   -3.1233    0.0000 C   0  0
   -0.3114   -2.9665    0.0000 S   0  0
    0.0000   -1.5000    0.0000 C   0  0
  1  2  1  0
  2  3  2  0
  3  4  1  0
  4  5  1  0
  5  6  2  0
  6  7  1  0
  7  8  3  0
  4  9  2  0
  9 10  1  0
 10 11  1  0
 10 12  2  0
 12  2  1  0
 12 13  1  0
 13 14  1  0
 14 15  2  0
 15 16  1  0
 16 17  1  0
 17 18  1  0
 18 19  1  0
 19 20  1  0
 20 21  1  0
 21 22  1  0
 22 23  1  0
 23 24  2  0
 24 25  1  0
 25 26  2  0
 26 27  1  0
 27 28  2  0
 28 23  1  0
 21 29  1  0
 29 30  1  0
 30 18  1  0
 16 31  2  0
 31 32  1  0
 32 33  1  0
 33 34  2  0
 34 35  1  0
 35 36  1  0
 36 14  1  0
 36 32  2  0
M  END
> <Smiles>
Cc1cc(/C=C/C#N)cc(C)c1Oc1nc(NC2CCN(Cc3cccnc3)CC2)nc2ccsc12

> <IC50_uM>
0.0107

> <pIC50>
7.970616222

> <Activity>
1

$$$$

  SciTegic10102310092D

 24 26  0  0  0  0            999 V2000
    2.5981   -1.5000    0.0000 C   0  0
    1.2990   -0.7500    0.0000 C   0  0
    1.2990    0.7500    0.0000 C   0  0
    0.0000    1.5000    0.0000 C   0  0
    0.0000    3.0008    0.0000 C   0  0
    1.2978    3.7529    0.0000 C   0  0
    1.2954    5.2529    0.0000 C   0  0
   -0.0048    6.0009    0.0000 C   0  0
   -0.0103    7.5017    0.0000 C   0  0
   -1.3123    8.2482    0.0000 C   0  0
   -1.3199    9.7482    0.0000 C   0  0
   -2.6228   10.4916    0.0000 C   0  0
   -2.6303   11.9916    0.0000 O   0  0
   -3.9180    9.7351    0.0000 N   0  0
   -5.2208   10.4785    0.0000 O   0  0
   -3.9104    8.2351    0.0000 C   0  0
   -5.2056    7.4785    0.0000 O   0  0
   -2.6076    7.4917    0.0000 N   0  0
   -1.3026    5.2488    0.0000 C   0  0
   -1.3002    3.7488    0.0000 C   0  0
   -1.2990    0.7500    0.0000 C   0  0
   -1.2990   -0.7500    0.0000 C   0  0
    0.0000   -1.5000    0.0000 C   0  0
    0.0000   -3.0000    0.0000 F   0  0
  1  2  1  0
  2  3  2  0
  3  4  1  0
  4  5  1  0
  5  6  2  0
  6  7  1  0
  7  8  2  0
  8  9  1  0
  9 10  1  0
 10 11  2  0
 11 12  1  0
 12 13  2  0
 12 14  1  0
 14 15  1  0
 14 16  1  0
 16 17  2  0
 16 18  1  0
 18 10  1  0
  8 19  1  0
 19 20  2  0
 20  5  1  0
  4 21  2  0
 21 22  1  0
 22 23  2  0
 23  2  1  0
 23 24  1  0
M  END
> <Smiles>
Cc1cc(-c2ccc(Cc3cc(=O)n(O)c(=O)[nH]3)cc2)ccc1F

> <IC50_uM>
0.011

> <pIC50>
7.958607315

> <Activity>
1

$$$$

  SciTegic10102310092D

 25 28  0  0  0  0            999 V2000
    3.5145   -2.2320    0.0000 C   0  0
    2.0759   -1.8072    0.0000 C   0  0
    1.6852   -0.3846    0.0000 C   0  0  3  0  0  0
    2.6548    0.7277    0.0000 C   0  0
    4.1268    0.4395    0.0000 C   0  0
    5.1124    1.5703    0.0000 C   0  0
    4.6260    2.9892    0.0000 C   0  0
    3.1539    3.2774    0.0000 C   0  0
    2.6643    4.6961    0.0000 O   0  0
    1.1918    4.9821    0.0000 C   0  0
    2.1683    2.1466    0.0000 C   0  0
    1.3514    1.0778    0.0000 O   0  0
    0.0000    1.7286    0.0000 C   0  0
    0.1115    3.2255    0.0000 C   0  0
   -1.1278    4.0705    0.0000 C   0  0
   -2.4793    3.4196    0.0000 C   0  0
   -2.5914    1.9238    0.0000 C   0  0
   -1.3515    1.0777    0.0000 C   0  0
   -1.6852   -0.3847    0.0000 N   0  0
   -3.0899   -0.9120    0.0000 C   0  0
   -3.0226   -2.4105    0.0000 C   0  0
   -1.5767   -2.8095    0.0000 C   0  0
   -0.7500   -1.5574    0.0000 C   0  0
    0.7500   -1.5574    0.0000 C   0  0
    1.4008   -2.9088    0.0000 O   0  0
  1  2  1  0
  3  2  1  4
  3  4  1  0
  4  5  2  0
  5  6  1  0
  6  7  2  0
  7  8  1  0
  8  9  1  0
  9 10  1  0
  8 11  2  0
 11  4  1  0
  3 12  1  0
 12 13  1  0
 13 14  2  0
 14 15  1  0
 15 16  2  0
 16 17  1  0
 17 18  2  0
 18 13  1  0
 18 19  1  0
 19 20  1  0
 20 21  2  0
 21 22  1  0
 22 23  2  0
 23 19  1  0
 23 24  1  0
 24  3  1  0
 24 25  2  0
M  END
> <Smiles>
CCC1(c2cccc(OC)c2)Oc2ccccc2-n2cccc2C1=O

> <IC50_uM>
0.011

> <pIC50>
7.958607315

> <Activity>
1

$$$$

  SciTegic10102310092D

 42 45  0  0  0  0            999 V2000
    3.8983   -0.7459    0.0000 C   0  0
    2.6003   -1.4977    0.0000 O   0  0
    1.2990   -0.7500    0.0000 C   0  0
    1.2990    0.7500    0.0000 C   0  0
    0.0000    1.5000    0.0000 C   0  0
    0.0000    3.0000    0.0000 N   0  0
   -1.2991    3.7500    0.0000 C   0  0
   -1.3022    5.2508    0.0000 S   0  0  3  0  0  0
   -0.0044    6.0031    0.0000 O   0  0
   -2.6030    5.9994    0.0000 C   0  0
   -2.6061    7.5002    0.0000 C   0  0
   -1.3084    8.2525    0.0000 O   0  0
   -3.9069    8.2488    0.0000 N   0  0
   -3.9100    9.7496    0.0000 C   0  0
   -5.2091   10.4996    0.0000 C   0  0
   -5.2091   11.9996    0.0000 C   0  0
   -3.9101   12.7497    0.0000 C   0  0
   -3.9070   14.2505    0.0000 N   0  3
   -2.6070   14.9987    0.0000 O   0  0
   -5.2048   15.0027    0.0000 O   0  5
   -2.6110   11.9997    0.0000 C   0  0
   -2.6110   10.4997    0.0000 C   0  0
   -2.5981    3.0000    0.0000 N   0  0
   -2.5981    1.5000    0.0000 C   0  0
   -3.8994    0.7522    0.0000 N   0  0
   -5.1981    1.5045    0.0000 C   0  0
   -6.4998    0.7590    0.0000 C   0  0
   -6.5050   -0.7409    0.0000 C   0  0
   -7.7962    1.5135    0.0000 C   0  0
   -7.7910    3.0135    0.0000 C   0  0
   -9.0866    3.7711    0.0000 C   0  0
   -9.0793    5.2719    0.0000 C   0  0
  -10.3749    6.0295    0.0000 C   0  0
  -11.6698    6.7866    0.0000 N   0  0
   -6.4894    3.7590    0.0000 C   0  0
   -5.1930    3.0045    0.0000 C   0  0
   -3.8914    3.7501    0.0000 C   0  0
   -1.2990    0.7500    0.0000 C   0  0
   -1.2990   -0.7500    0.0000 C   0  0
    0.0000   -1.5000    0.0000 C   0  0
   -0.0031   -3.0008    0.0000 O   0  0
   -1.3032   -3.7490    0.0000 C   0  0
  1  2  1  0
  2  3  1  0
  3  4  2  0
  4  5  1  0
  5  6  2  0
  6  7  1  0
  7  8  1  0
  8  9  2  0
  8 10  1  4
 10 11  1  0
 11 12  2  0
 11 13  1  0
 13 14  1  0
 14 15  2  0
 15 16  1  0
 16 17  2  0
 17 18  1  0
 18 19  2  0
 18 20  1  0
 17 21  1  0
 21 22  2  0
 22 14  1  0
  7 23  2  0
 23 24  1  0
 24 25  1  0
 25 26  1  0
 26 27  2  0
 27 28  1  0
 27 29  1  0
 29 30  2  0
 30 31  1  0
 31 32  2  0
 32 33  1  0
 33 34  3  0
 30 35  1  0
 35 36  2  0
 36 26  1  0
 36 37  1  0
 24 38  2  0
 38  5  1  0
 38 39  1  0
 39 40  2  0
 40  3  1  0
 40 41  1  0
 41 42  1  0
M  CHG  2  18   1  20  -1
M  END
> <Smiles>
COc1cc2nc([S+]([O-])CC(=O)Nc3ccc([N+](=O)[O-])cc3)nc(Nc3c(C)cc(/C=C/C#N)cc3C)c2cc1OC

> <IC50_uM>
0.011

> <pIC50>
7.958607315

> <Activity>
1

$$$$

  SciTegic10102310092D

 29 32  0  0  0  0            999 V2000
    2.5981   -1.5000    0.0000 C   0  0
    1.2990   -0.7500    0.0000 C   0  0
    1.2990    0.7500    0.0000 C   0  0
    0.0000    1.5000    0.0000 C   0  0
    0.0000    3.0008    0.0000 C   0  0
    0.0000    4.5008    0.0000 N   0  0
   -1.2990    0.7500    0.0000 C   0  0
   -1.2990   -0.7500    0.0000 C   0  0
    0.0000   -1.5000    0.0000 C   0  0
    0.0000   -3.0008    0.0000 C   0  0
   -1.2978   -3.7529    0.0000 C   0  0
   -1.2955   -5.2529    0.0000 C   0  0
    0.0048   -6.0009    0.0000 N   0  0
    1.3026   -5.2488    0.0000 C   0  0
    2.6051   -5.9945    0.0000 N   0  0
    3.9026   -5.2401    0.0000 C   0  0
    5.2051   -5.9858    0.0000 C   0  0
    5.3453   -7.4665    0.0000 N   0  0
    6.8130   -7.7760    0.0000 N   0  0
    7.5609   -6.4758    0.0000 C   0  0
    9.0532   -6.3165    0.0000 C   0  0
   10.0216   -7.4555    0.0000 C   0  0
   11.4970   -7.1845    0.0000 C   0  0
   12.0000   -5.7714    0.0000 C   0  0
   11.0277   -4.6292    0.0000 C   0  0
    9.5523   -4.9001    0.0000 C   0  0
    6.5555   -5.3626    0.0000 C   0  0
    6.8563   -3.8931    0.0000 Cl  0  0
    1.3002   -3.7488    0.0000 C   0  0
  1  2  1  0
  2  3  2  0
  3  4  1  0
  4  5  1  0
  5  6  3  0
  4  7  2  0
  7  8  1  0
  8  9  2  0
  9  2  1  0
  9 10  1  0
 10 11  2  0
 11 12  1  0
 12 13  2  0
 13 14  1  0
 14 15  1  0
 15 16  1  0
 16 17  1  0
 17 18  2  0
 18 19  1  0
 19 20  1  0
 20 21  1  0
 21 22  2  0
 22 23  1  0
 23 24  2  0
 24 25  1  0
 25 26  2  0
 26 21  1  0
 20 27  2  0
 27 17  1  0
 27 28  1  0
 14 29  2  0
 29 10  1  0
M  END
> <Smiles>
Cc1cc(C#N)ccc1-c1ccnc(NCc2n[nH]c(-c3ccccc3)c2Cl)c1

> <IC50_uM>
0.011

> <pIC50>
7.958607315

> <Activity>
1

$$$$

  SciTegic10102310092D

 30 32  0  0  0  0            999 V2000
   14.2905    0.7816    0.0000 C   0  0
   12.9891    1.5275    0.0000 S   0  0
   12.9848    3.0275    0.0000 O   0  0
   14.2859    2.2814    0.0000 O   0  0
   11.6919    0.7726    0.0000 C   0  0
   10.3903    1.5181    0.0000 C   0  0
    9.0939    0.7636    0.0000 C   0  0
    9.0990   -0.7364    0.0000 C   0  0
    7.8003   -1.4887    0.0000 N   0  0
    6.4990   -0.7409    0.0000 C   0  0
    6.4964    0.7591    0.0000 O   0  0
    5.2003   -1.4932    0.0000 C   0  0
    3.8990   -0.7455    0.0000 S   0  0
    2.6003   -1.4977    0.0000 C   0  0
    2.6030   -2.9977    0.0000 O   0  0
    1.2990   -0.7500    0.0000 N   0  0
    1.2990    0.7500    0.0000 C   0  0
    0.0000    1.5000    0.0000 C   0  0
   -1.2990    0.7500    0.0000 C   0  0
   -1.2990   -0.7500    0.0000 C   0  0
   -2.5981   -1.5000    0.0000 C   0  0
   -2.5981   -3.0000    0.0000 C   0  0
   -3.8971   -3.7500    0.0000 Cl  0  0
   -1.2990   -3.7500    0.0000 C   0  0
    0.0000   -3.0000    0.0000 C   0  0
    1.2991   -3.7500    0.0000 Cl  0  0
    0.0000   -1.5000    0.0000 C   0  0
   10.4007   -1.4818    0.0000 C   0  0
   10.4059   -2.9818    0.0000 Cl  0  0
   11.6971   -0.7274    0.0000 C   0  0
  1  2  1  0
  2  3  2  0
  2  4  2  0
  2  5  1  0
  5  6  2  0
  6  7  1  0
  7  8  2  0
  8  9  1  0
  9 10  1  0
 10 11  2  0
 10 12  1  0
 12 13  1  0
 13 14  1  0
 14 15  2  0
 14 16  1  0
 16 17  1  0
 17 18  1  0
 18 19  1  0
 19 20  1  0
 20 21  2  0
 21 22  1  0
 22 23  1  0
 22 24  2  0
 24 25  1  0
 25 26  1  0
 25 27  2  0
 27 20  1  0
 27 16  1  0
  8 28  1  0
 28 29  1  0
 28 30  2  0
 30  5  1  0
M  END
> <Smiles>
CS(=O)(=O)c1ccc(NC(=O)CSC(=O)N2CCCc3cc(Cl)cc(Cl)c32)c(Cl)c1

> <IC50_uM>
0.011

> <pIC50>
7.958607315

> <Activity>
1

$$$$

  SciTegic10102310092D

 17 18  0  0  0  0            999 V2000
    2.5981   -1.5000    0.0000 O   0  0
    1.2990   -0.7500    0.0000 C   0  0
    1.2990    0.7500    0.0000 C   0  0
    0.0000    1.5000    0.0000 C   0  0
   -0.0031    3.0008    0.0000 C   0  0
   -1.3039    3.7494    0.0000 C   0  0
   -1.3092    5.2494    0.0000 C   0  0
   -2.6108    5.9949    0.0000 C   0  0
   -3.9073    5.2404    0.0000 C   0  0
   -5.2089    5.9859    0.0000 Br  0  0
   -3.9021    3.7404    0.0000 C   0  0
   -2.6005    2.9949    0.0000 C   0  0
   -1.2990    0.7500    0.0000 N   0  0
   -1.2990   -0.7500    0.0000 C   0  0
   -2.5981   -1.5000    0.0000 O   0  0
    0.0000   -1.5000    0.0000 N   0  0
    0.0000   -3.0000    0.0000 O   0  0
  1  2  2  0
  2  3  1  0
  3  4  2  0
  4  5  1  0
  5  6  1  0
  6  7  2  0
  7  8  1  0
  8  9  2  0
  9 10  1  0
  9 11  1  0
 11 12  2  0
 12  6  1  0
  4 13  1  0
 13 14  1  0
 14 15  2  0
 14 16  1  0
 16  2  1  0
 16 17  1  0
M  END
> <Smiles>
O=c1cc(Cc2ccc(Br)cc2)[nH]c(=O)n1O

> <IC50_uM>
0.011

> <pIC50>
7.958607315

> <Activity>
1

$$$$

  SciTegic10102310092D

 27 29  0  0  0  0            999 V2000
    2.5981   -1.5000    0.0000 C   0  0
    1.2990   -0.7500    0.0000 C   0  0
    1.2990    0.7500    0.0000 C   0  0
    0.0000    1.5000    0.0000 N   0  0
   -1.2990    0.7500    0.0000 C   0  0
   -2.6003    1.4977    0.0000 N   0  0
   -3.8990    0.7455    0.0000 C   0  0
   -5.2007    1.4909    0.0000 C   0  0
   -6.4972    0.7364    0.0000 C   0  0
   -6.4920   -0.7636    0.0000 C   0  0
   -7.7891   -1.5185    0.0000 C   0  0
   -9.0855   -2.2730    0.0000 N   0  0
   -5.1903   -1.5091    0.0000 C   0  0
   -3.8939   -0.7546    0.0000 C   0  0
   -1.2990   -0.7500    0.0000 N   0  0
    0.0000   -1.5000    0.0000 C   0  0
   -0.0031   -3.0008    0.0000 N   0  0
   -1.3039   -3.7494    0.0000 C   0  0
   -1.3092   -5.2494    0.0000 C   0  0
   -0.0128   -6.0039    0.0000 C   0  0
   -2.6108   -5.9949    0.0000 C   0  0
   -3.9072   -5.2404    0.0000 C   0  0
   -5.2096   -5.9864    0.0000 C   0  0
   -6.5112   -6.7319    0.0000 N   0  0
   -3.9020   -3.7404    0.0000 C   0  0
   -2.6004   -2.9949    0.0000 C   0  0
   -2.5953   -1.4949    0.0000 C   0  0
  1  2  1  0
  2  3  2  0
  3  4  1  0
  4  5  2  0
  5  6  1  0
  6  7  1  0
  7  8  2  0
  8  9  1  0
  9 10  2  0
 10 11  1  0
 11 12  3  0
 10 13  1  0
 13 14  2  0
 14  7  1  0
  5 15  1  0
 15 16  2  0
 16  2  1  0
 16 17  1  0
 17 18  1  0
 18 19  2  0
 19 20  1  0
 19 21  1  0
 21 22  2  0
 22 23  1  0
 23 24  3  0
 22 25  1  0
 25 26  2  0
 26 18  1  0
 26 27  1  0
M  END
> <Smiles>
Cc1cnc(Nc2ccc(C#N)cc2)nc1Nc1c(C)cc(C#N)cc1C

> <IC50_uM>
0.012

> <pIC50>
7.920818754

> <Activity>
1

$$$$

  SciTegic10102310092D

 24 25  0  0  0  0            999 V2000
    3.8912   -5.2570    0.0000 C   0  0
    3.8933   -3.7570    0.0000 C   0  0
    2.5951   -3.0039    0.0000 C   0  0  3  0  0  0
    1.2948   -3.7516    0.0000 C   0  0
    2.5973   -1.5031    0.0000 S   0  0
    1.2990   -0.7500    0.0000 C   0  0
    1.2990    0.7500    0.0000 N   0  0
    0.0000    1.5000    0.0000 C   0  0
    0.0031    3.0008    0.0000 C   0  0  3  0  0  0
   -1.2938    3.7562    0.0000 O   0  0
   -1.2891    5.2562    0.0000 C   0  0
    1.3039    3.7494    0.0000 C   0  0
    1.3092    5.2494    0.0000 C   0  0
    0.0127    6.0039    0.0000 F   0  0
    2.6108    5.9949    0.0000 C   0  0
    3.9072    5.2405    0.0000 C   0  0
    3.9020    3.7405    0.0000 C   0  0
    2.6004    2.9949    0.0000 C   0  0
    2.5953    1.4950    0.0000 Cl  0  0
   -1.2990    0.7500    0.0000 C   0  0
   -2.5981    1.5000    0.0000 C   0  0
   -1.2990   -0.7500    0.0000 C   0  0
   -2.5981   -1.5000    0.0000 O   0  0
    0.0000   -1.5000    0.0000 N   0  0
  1  2  1  0
  2  3  1  0
  3  4  1  4
  3  5  1  0
  5  6  1  0
  6  7  2  0
  7  8  1  0
  8  9  1  0
  9 10  1  4
 10 11  1  0
  9 12  1  0
 12 13  2  0
 13 14  1  0
 13 15  1  0
 15 16  2  0
 16 17  1  0
 17 18  2  0
 18 12  1  0
 18 19  1  0
  8 20  2  0
 20 21  1  0
 20 22  1  0
 22 23  2  0
 22 24  1  0
 24  6  1  0
M  END
> <Smiles>
CCC(C)Sc1nc(C(OC)c2c(F)cccc2Cl)c(C)c(=O)[nH]1

> <IC50_uM>
0.012

> <pIC50>
7.920818754

> <Activity>
1

$$$$

  SciTegic10102310092D

 33 35  0  0  0  0            999 V2000
    3.8983   -0.7512    0.0000 C   0  0
    2.5988   -1.5004    0.0000 C   0  0
    2.5983   -3.0004    0.0000 C   0  0
    3.8975   -2.2510    0.0000 C   0  0
    1.2990   -0.7500    0.0000 C   0  0
    1.2990    0.7500    0.0000 C   0  0
    0.0000    1.5000    0.0000 C   0  0
   -1.2990    0.7500    0.0000 C   0  0
   -2.5987    1.5004    0.0000 N   0  0
   -3.9492    0.8772    0.0000 N   0  0
   -4.9546    1.9903    0.0000 N   0  0
   -4.2067    3.2905    0.0000 N   0  0
   -2.7390    2.9810    0.0000 C   0  0
   -1.6216    3.9790    0.0000 S   0  0
   -1.9268    5.4485    0.0000 C   0  0
   -0.8074    6.4482    0.0000 C   0  0
    0.6172    5.9785    0.0000 O   0  0
   -1.1126    7.9177    0.0000 N   0  0
    0.0068    8.9174    0.0000 C   0  0
    1.4306    8.4453    0.0000 C   0  0
    2.5514    9.4422    0.0000 C   0  0
    2.2485   10.9113    0.0000 C   0  0
    3.3699   11.9088    0.0000 C   0  0
    4.4913   12.9062    0.0000 C   0  0
    5.6127   13.9037    0.0000 C   0  0
    7.0375   13.4321    0.0000 C   0  0
    8.1583   14.4290    0.0000 O   0  0
    0.8247   11.3835    0.0000 C   0  0
   -0.2961   10.3866    0.0000 C   0  0
   -1.7198   10.8588    0.0000 Cl  0  0
   -1.2990   -0.7500    0.0000 C   0  0
   -2.5981   -1.5000    0.0000 Cl  0  0
    0.0000   -1.5000    0.0000 C   0  0
  1  2  1  0
  2  3  1  0
  2  4  1  0
  2  5  1  0
  5  6  2  0
  6  7  1  0
  7  8  2  0
  8  9  1  0
  9 10  1  0
 10 11  2  0
 11 12  1  0
 12 13  2  0
 13  9  1  0
 13 14  1  0
 14 15  1  0
 15 16  1  0
 16 17  2  0
 16 18  1  0
 18 19  1  0
 19 20  2  0
 20 21  1  0
 21 22  2  0
 22 23  1  0
 23 24  3  0
 24 25  1  0
 25 26  1  0
 26 27  1  0
 22 28  1  0
 28 29  2  0
 29 19  1  0
 29 30  1  0
  8 31  1  0
 31 32  1  0
 31 33  2  0
 33  5  1  0
M  END
> <Smiles>
CC(C)(C)c1ccc(-n2nnnc2SCC(=O)Nc2ccc(C#CCCO)cc2Cl)c(Cl)c1

> <IC50_uM>
0.012

> <pIC50>
7.920818754

> <Activity>
1

$$$$

  SciTegic10102310092D

 23 25  0  0  0  0            999 V2000
    2.5981   -1.5000    0.0000 O   0  0
    1.2990   -0.7500    0.0000 C   0  0
    1.2990    0.7500    0.0000 C   0  0
    0.0000    1.5000    0.0000 C   0  0
   -0.0031    3.0008    0.0000 C   0  0
   -1.3039    3.7494    0.0000 C   0  0
   -1.3092    5.2494    0.0000 C   0  0
   -2.6108    5.9949    0.0000 C   0  0
   -3.9073    5.2404    0.0000 C   0  0
   -3.9021    3.7404    0.0000 C   0  0
   -5.1992    2.9855    0.0000 C   0  0
   -6.5021    3.7289    0.0000 C   0  0
   -7.7973    2.9724    0.0000 C   0  0
   -7.7897    1.4724    0.0000 C   0  0
   -9.0850    0.7158    0.0000 Cl  0  0
   -6.4869    0.7290    0.0000 C   0  0
   -5.1917    1.4855    0.0000 C   0  0
   -2.6005    2.9949    0.0000 C   0  0
   -1.2990    0.7500    0.0000 N   0  0
   -1.2990   -0.7500    0.0000 C   0  0
   -2.5981   -1.5000    0.0000 O   0  0
    0.0000   -1.5000    0.0000 N   0  0
    0.0000   -3.0000    0.0000 O   0  0
  1  2  2  0
  2  3  1  0
  3  4  2  0
  4  5  1  0
  5  6  1  0
  6  7  2  0
  7  8  1  0
  8  9  2  0
  9 10  1  0
 10 11  1  0
 11 12  2  0
 12 13  1  0
 13 14  2  0
 14 15  1  0
 14 16  1  0
 16 17  2  0
 17 11  1  0
 10 18  2  0
 18  6  1  0
  4 19  1  0
 19 20  1  0
 20 21  2  0
 20 22  1  0
 22  2  1  0
 22 23  1  0
M  END
> <Smiles>
O=c1cc(Cc2cccc(-c3ccc(Cl)cc3)c2)[nH]c(=O)n1O

> <IC50_uM>
0.012

> <pIC50>
7.920818754

> <Activity>
1

$$$$

  SciTegic10102310092D

 30 33  0  0  0  0            999 V2000
    2.5981   -1.5000    0.0000 C   0  0
    1.2990   -0.7500    0.0000 N   0  0
    1.2990    0.7500    0.0000 C   0  0
    0.0000    1.5000    0.0000 C   0  0
   -1.2990    0.7500    0.0000 C   0  0
   -2.7248    1.2135    0.0000 C   0  0
   -3.1905    2.6376    0.0000 C   0  0
   -4.6589    2.9478    0.0000 C   0  0
   -5.6590    1.8298    0.0000 C   0  0
   -7.1272    2.1368    0.0000 C   0  0
   -7.5955    3.5619    0.0000 C   0  0
   -9.0637    3.8689    0.0000 Br  0  0
   -6.5954    4.6799    0.0000 C   0  0
   -7.0610    6.1067    0.0000 O   0  0
   -6.0588    7.2239    0.0000 C   0  0
   -6.5220    8.6506    0.0000 C   0  0
   -5.5181    9.7651    0.0000 C   0  0
   -5.9814   11.1918    0.0000 Cl  0  0
   -4.0509    9.4530    0.0000 C   0  0
   -3.5876    8.0263    0.0000 C   0  0
   -2.1197    7.7140    0.0000 C   0  0
   -0.6525    7.4019    0.0000 N   0  0
   -4.5915    6.9118    0.0000 C   0  0
   -5.1272    4.3728    0.0000 C   0  0
   -4.1272    5.4909    0.0000 F   0  0
   -3.6065    0.0000    0.0000 N   0  0
   -2.7248   -1.2135    0.0000 N   0  0
   -1.2990   -0.7500    0.0000 C   0  0
    0.0000   -1.5000    0.0000 C   0  0
    0.0000   -3.0000    0.0000 O   0  0
  1  2  1  0
  2  3  1  0
  3  4  2  0
  4  5  1  0
  5  6  1  0
  6  7  1  0
  7  8  1  0
  8  9  2  0
  9 10  1  0
 10 11  2  0
 11 12  1  0
 11 13  1  0
 13 14  1  0
 14 15  1  0
 15 16  2  0
 16 17  1  0
 17 18  1  0
 17 19  2  0
 19 20  1  0
 20 21  1  0
 21 22  3  0
 20 23  2  0
 23 15  1  0
 13 24  2  0
 24  8  1  0
 24 25  1  0
  6 26  2  0
 26 27  1  0
 27 28  1  0
 28  5  2  0
 28 29  1  0
 29  2  1  0
 29 30  2  0
M  END
> <Smiles>
Cn1ccc2c(Cc3ccc(Br)c(Oc4cc(Cl)cc(C#N)c4)c3F)n[nH]c2c1=O

> <IC50_uM>
0.012

> <pIC50>
7.920818754

> <Activity>
1

$$$$

  SciTegic10102310092D

 24 26  0  0  0  0            999 V2000
    3.8983   -0.7566    0.0000 C   0  0
    2.5973   -1.5031    0.0000 C   0  0
    1.2990   -0.7500    0.0000 C   0  0
    1.2990    0.7500    0.0000 C   0  0
    2.5981    1.5000    0.0000 C   0  0
    0.0000    1.5000    0.0000 N   0  0
   -1.2990    0.7500    0.0000 C   0  0
   -2.5981    1.5000    0.0000 O   0  0
   -1.2990   -0.7500    0.0000 C   0  0
   -2.5987   -1.5004    0.0000 N   0  0
   -3.9511   -0.8815    0.0000 C   0  0
   -4.9530   -1.9978    0.0000 C   0  0
   -4.2010   -3.2957    0.0000 C   0  0
   -2.7343   -2.9815    0.0000 C   0  0
    0.0000   -1.5000    0.0000 C   0  0
    0.0031   -3.0008    0.0000 C   0  0
    1.3039   -3.7494    0.0000 C   0  0
    1.3092   -5.2494    0.0000 C   0  0
    2.6108   -5.9949    0.0000 C   0  0
    2.6160   -7.4949    0.0000 C   0  0
    3.9073   -5.2404    0.0000 C   0  0
    3.9021   -3.7404    0.0000 C   0  0
    5.1985   -2.9859    0.0000 C   0  0
    2.6004   -2.9949    0.0000 C   0  0
  1  2  1  0
  2  3  1  0
  3  4  2  0
  4  5  1  0
  4  6  1  0
  6  7  1  0
  7  8  2  0
  7  9  1  0
  9 10  1  0
 10 11  1  0
 11 12  2  0
 12 13  1  0
 13 14  2  0
 14 10  1  0
  9 15  2  0
 15  3  1  0
 15 16  1  0
 16 17  1  0
 17 18  2  0
 18 19  1  0
 19 20  1  0
 19 21  2  0
 21 22  1  0
 22 23  1  0
 22 24  2  0
 24 17  1  0
M  END
> <Smiles>
CCc1c(C)[nH]c(=O)c(-n2cccc2)c1Cc1cc(C)cc(C)c1

> <IC50_uM>
0.0126

> <pIC50>
7.899629455

> <Activity>
1

$$$$

  SciTegic10102310092D

 29 31  0  0  1  0            999 V2000
    3.1676   -7.5606    0.0000 C   0  0
    1.7006   -7.2475    0.0000 C   0  0
    0.6960   -8.3614    0.0000 C   0  0
   -0.7710   -8.0483    0.0000 C   0  0
   -1.7756   -9.1622    0.0000 C   0  0
   -1.2333   -6.6213    0.0000 C   0  0
   -0.2287   -5.5075    0.0000 C   0  0
   -0.6913   -4.0797    0.0000 S   0  0
   -2.1584   -3.7671    0.0000 O   0  0
   -1.6957   -5.1937    0.0000 O   0  0
    0.3114   -2.9665    0.0000 C   0  0
    1.8032   -3.1233    0.0000 C   0  0
    2.5551   -4.4192    0.0000 C   0  0
    1.8074   -5.7196    0.0000 O   0  0
    4.0559   -4.4171    0.0000 N   0  0
    4.8090   -5.7153    0.0000 C   0  0  1  0  0  0
    4.0613   -7.0156    0.0000 C   0  0
    6.3098   -5.7131    0.0000 C   0  0
    7.0575   -4.4127    0.0000 N   0  0
    7.0625   -7.0106    0.0000 O   0  0
    2.4133   -1.7530    0.0000 N   0  0
    1.2990   -0.7500    0.0000 C   0  0
    1.2990    0.7500    0.0000 C   0  0
    0.0000    1.5000    0.0000 C   0  0
   -1.2990    0.7500    0.0000 C   0  0
   -2.5981    1.5000    0.0000 Br  0  0
   -1.2990   -0.7500    0.0000 C   0  0
    0.0000   -1.5000    0.0000 C   0  0
    1.2383   -5.8206    0.0000 C   0  0
  1  2  1  0
  2  3  2  0
  3  4  1  0
  4  5  1  0
  4  6  2  0
  6  7  1  0
  7  8  1  0
  8  9  2  0
  8 10  2  0
  8 11  1  0
 11 12  2  0
 12 13  1  0
 13 14  2  0
 13 15  1  0
 15 16  1  0
 16 17  1  6
 16 18  1  0
 18 19  1  0
 18 20  2  0
 12 21  1  0
 21 22  1  0
 22 23  2  0
 23 24  1  0
 24 25  2  0
 25 26  1  0
 25 27  1  0
 27 28  2  0
 28 11  1  0
 28 22  1  0
  7 29  2  0
 29  2  1  0
M  END
> <Smiles>
Cc1cc(C)cc(S(=O)(=O)c2c(C(=O)N[C@@H](C)C(N)=O)[nH]c3ccc(Br)cc23)c1

> <IC50_uM>
0.013

> <pIC50>
7.886056648

> <Activity>
1

$$$$

  SciTegic10102310092D

 17 18  0  0  0  0            999 V2000
    2.5981   -1.5000    0.0000 O   0  0
    1.2990   -0.7500    0.0000 C   0  0
    1.2990    0.7500    0.0000 C   0  0
    0.0000    1.5000    0.0000 C   0  0
   -0.0031    3.0008    0.0000 C   0  0
   -1.3039    3.7494    0.0000 C   0  0
   -1.3092    5.2494    0.0000 C   0  0
   -2.6108    5.9949    0.0000 C   0  0
   -3.9073    5.2404    0.0000 C   0  0
   -3.9021    3.7404    0.0000 C   0  0
   -5.1985    2.9859    0.0000 Br  0  0
   -2.6005    2.9949    0.0000 C   0  0
   -1.2990    0.7500    0.0000 N   0  0
   -1.2990   -0.7500    0.0000 C   0  0
   -2.5981   -1.5000    0.0000 O   0  0
    0.0000   -1.5000    0.0000 N   0  0
    0.0000   -3.0000    0.0000 O   0  0
  1  2  2  0
  2  3  1  0
  3  4  2  0
  4  5  1  0
  5  6  1  0
  6  7  2  0
  7  8  1  0
  8  9  2  0
  9 10  1  0
 10 11  1  0
 10 12  2  0
 12  6  1  0
  4 13  1  0
 13 14  1  0
 14 15  2  0
 14 16  1  0
 16  2  1  0
 16 17  1  0
M  END
> <Smiles>
O=c1cc(Cc2cccc(Br)c2)[nH]c(=O)n1O

> <IC50_uM>
0.013

> <pIC50>
7.886056648

> <Activity>
1

$$$$

  SciTegic10102310092D

 30 32  0  0  0  0            999 V2000
    3.1676   -7.5606    0.0000 C   0  0
    1.7006   -7.2475    0.0000 C   0  0
    0.6960   -8.3614    0.0000 C   0  0
   -0.7710   -8.0483    0.0000 C   0  0
   -1.7756   -9.1622    0.0000 C   0  0
   -1.2333   -6.6213    0.0000 C   0  0
   -0.2287   -5.5075    0.0000 C   0  0
   -0.6913   -4.0797    0.0000 S   0  0
   -2.1584   -3.7671    0.0000 O   0  0
   -1.6957   -5.1937    0.0000 O   0  0
    0.3114   -2.9665    0.0000 C   0  0
    1.8032   -3.1233    0.0000 C   0  0
    2.5551   -4.4192    0.0000 C   0  0
    1.8074   -5.7196    0.0000 O   0  0
    4.0559   -4.4171    0.0000 N   0  0
    4.8090   -5.7153    0.0000 C   0  0
    6.3098   -5.7131    0.0000 C   0  0
    7.0629   -7.0113    0.0000 S   0  0
    7.8150   -8.3091    0.0000 N   0  0
    8.5629   -7.0091    0.0000 O   0  0
    6.3152   -8.3116    0.0000 O   0  0
    2.4133   -1.7530    0.0000 N   0  0
    1.2990   -0.7500    0.0000 C   0  0
    1.2990    0.7500    0.0000 C   0  0
    0.0000    1.5000    0.0000 C   0  0
   -1.2990    0.7500    0.0000 C   0  0
   -2.5981    1.5000    0.0000 Br  0  0
   -1.2990   -0.7500    0.0000 C   0  0
    0.0000   -1.5000    0.0000 C   0  0
    1.2383   -5.8206    0.0000 C   0  0
  1  2  1  0
  2  3  2  0
  3  4  1  0
  4  5  1  0
  4  6  2  0
  6  7  1  0
  7  8  1  0
  8  9  2  0
  8 10  2  0
  8 11  1  0
 11 12  2  0
 12 13  1  0
 13 14  2  0
 13 15  1  0
 15 16  1  0
 16 17  1  0
 17 18  1  0
 18 19  1  0
 18 20  2  0
 18 21  2  0
 12 22  1  0
 22 23  1  0
 23 24  2  0
 24 25  1  0
 25 26  2  0
 26 27  1  0
 26 28  1  0
 28 29  2  0
 29 11  1  0
 29 23  1  0
  7 30  2  0
 30  2  1  0
M  END
> <Smiles>
Cc1cc(C)cc(S(=O)(=O)c2c(C(=O)NCCS(N)(=O)=O)[nH]c3ccc(Br)cc23)c1

> <IC50_uM>
0.013

> <pIC50>
7.886056648

> <Activity>
1

$$$$

  SciTegic10102310092D

 27 29  0  0  0  0            999 V2000
    3.8978   -2.2504    0.0000 N   0  0
    2.5988   -1.5004    0.0000 C   0  0
    1.2990   -0.7500    0.0000 C   0  0
    1.2990    0.7500    0.0000 C   0  0
    0.0000    1.5000    0.0000 C   0  0
    0.0000    3.0000    0.0000 Cl  0  0
   -1.2990    0.7500    0.0000 C   0  0
   -1.2990   -0.7500    0.0000 C   0  0
   -2.5972   -1.5031    0.0000 O   0  0
   -2.5951   -3.0039    0.0000 C   0  0
   -3.8915   -3.7585    0.0000 C   0  0
   -5.1954   -3.0153    0.0000 C   0  0
   -6.4915   -3.7721    0.0000 O   0  0
   -7.7954   -3.0289    0.0000 C   0  0
   -9.0914   -3.7857    0.0000 C   0  0
  -10.3957   -3.0449    0.0000 C   0  0
  -11.6895   -3.8039    0.0000 C   0  0
  -11.6791   -5.3039    0.0000 N   0  0
  -10.3748   -6.0448    0.0000 C   0  0
   -9.0811   -5.2858    0.0000 C   0  0
   -3.8863   -5.2585    0.0000 C   0  0
   -2.5847   -6.0040    0.0000 N   0  0
   -1.2883   -5.2495    0.0000 C   0  0
    0.0134   -5.9950    0.0000 O   0  0
   -1.2935   -3.7495    0.0000 C   0  0
    0.0030   -2.9951    0.0000 Br  0  0
    0.0000   -1.5000    0.0000 C   0  0
  1  2  3  0
  2  3  1  0
  3  4  2  0
  4  5  1  0
  5  6  1  0
  5  7  2  0
  7  8  1  0
  8  9  1  0
  9 10  1  0
 10 11  1  0
 11 12  1  0
 12 13  1  0
 13 14  1  0
 14 15  1  0
 15 16  2  0
 16 17  1  0
 17 18  2  0
 18 19  1  0
 19 20  2  0
 20 15  1  0
 11 21  2  0
 21 22  1  0
 22 23  1  0
 23 24  2  0
 23 25  1  0
 25 10  2  0
 25 26  1  0
  8 27  2  0
 27  3  1  0
M  END
> <Smiles>
N#Cc1cc(Cl)cc(Oc2c(COCc3ccncc3)c[nH]c(=O)c2Br)c1

> <IC50_uM>
0.013

> <pIC50>
7.886056648

> <Activity>
1

$$$$

  SciTegic10102310092D

 34 37  0  0  0  0            999 V2000
    2.5981   -1.5000    0.0000 C   0  0
    1.2990   -0.7500    0.0000 C   0  0
    1.2990    0.7500    0.0000 C   0  0
    0.0000    1.5000    0.0000 C   0  0
    0.0000    3.0008    0.0000 C   0  0
    0.0000    4.5008    0.0000 N   0  0
   -1.2990    0.7500    0.0000 C   0  0
   -1.2990   -0.7500    0.0000 C   0  0
   -2.5981   -1.5000    0.0000 C   0  0
    0.0000   -1.5000    0.0000 C   0  0
    0.0031   -3.0008    0.0000 O   0  0
    1.3039   -3.7494    0.0000 C   0  0
    2.6005   -2.9949    0.0000 N   0  0
    3.9021   -3.7404    0.0000 C   0  0
    5.2008   -2.9882    0.0000 N   0  0
    6.5021   -3.7360    0.0000 C   0  0
    7.8012   -2.9860    0.0000 C   0  0
    9.1002   -3.7360    0.0000 C   0  0
    9.1002   -5.2360    0.0000 N   0  0
   10.3999   -5.9864    0.0000 C   0  0
   11.7002   -5.2385    0.0000 C   0  0
   12.9981   -5.9906    0.0000 C   0  0
   12.9957   -7.4906    0.0000 C   0  0
   11.6954   -8.2385    0.0000 C   0  0
   11.6900   -9.7394    0.0000 C   0  0
   12.9865  -10.4937    0.0000 N   0  0
   10.3887  -10.4854    0.0000 O   0  0
   10.3976   -7.4865    0.0000 C   0  0
    7.8012   -5.9860    0.0000 C   0  0
    6.5021   -5.2360    0.0000 C   0  0
    3.9073   -5.2404    0.0000 N   0  0
    2.6108   -5.9949    0.0000 C   0  0
    1.3092   -5.2494    0.0000 C   0  0
    0.0128   -6.0039    0.0000 Cl  0  0
  1  2  1  0
  2  3  2  0
  3  4  1  0
  4  5  1  0
  5  6  3  0
  4  7  2  0
  7  8  1  0
  8  9  1  0
  8 10  2  0
 10  2  1  0
 10 11  1  0
 11 12  1  0
 12 13  2  0
 13 14  1  0
 14 15  1  0
 15 16  1  0
 16 17  1  0
 17 18  1  0
 18 19  1  0
 19 20  1  0
 20 21  2  0
 21 22  1  0
 22 23  2  0
 23 24  1  0
 24 25  1  0
 25 26  1  0
 25 27  2  0
 24 28  2  0
 28 20  1  0
 19 29  1  0
 29 30  1  0
 30 16  1  0
 14 31  2  0
 31 32  1  0
 32 33  2  0
 33 12  1  0
 33 34  1  0
M  END
> <Smiles>
Cc1cc(C#N)cc(C)c1Oc1nc(NC2CCN(c3cccc(C(N)=O)c3)CC2)ncc1Cl

> <IC50_uM>
0.013

> <pIC50>
7.886056648

> <Activity>
1

$$$$

  SciTegic10102310092D

 24 26  0  0  0  0            999 V2000
    2.5981   -1.5000    0.0000 C   0  0
    1.2990   -0.7500    0.0000 C   0  0
    1.2990    0.7500    0.0000 C   0  0
    0.0000    1.5000    0.0000 C   0  0
   -1.2990    0.7500    0.0000 C   0  0
   -2.6003    1.4977    0.0000 C   0  0
   -3.8990    0.7455    0.0000 N   0  0
   -5.2003    1.4932    0.0000 C   0  0
   -6.4994    0.7432    0.0000 C   0  0
   -7.7985    1.4932    0.0000 C   0  0
   -7.7985    2.9932    0.0000 N   0  0
   -6.4995    3.7432    0.0000 C   0  0
   -6.4965    5.2441    0.0000 N   0  0
   -5.1957    5.9927    0.0000 C   0  0
   -5.1904    7.4927    0.0000 C   0  0
   -3.8888    8.2382    0.0000 C   0  0
   -2.5924    7.4838    0.0000 C   0  0
   -1.2900    8.2297    0.0000 C   0  0
    0.0116    8.9753    0.0000 N   0  0
   -2.5975    5.9838    0.0000 C   0  0
   -3.8991    5.2382    0.0000 C   0  0
   -5.2004    2.9933    0.0000 N   0  0
   -1.2990   -0.7500    0.0000 C   0  0
    0.0000   -1.5000    0.0000 C   0  0
  1  2  1  0
  2  3  2  0
  3  4  1  0
  4  5  2  0
  5  6  1  0
  6  7  1  0
  7  8  1  0
  8  9  2  0
  9 10  1  0
 10 11  2  0
 11 12  1  0
 12 13  1  0
 13 14  1  0
 14 15  2  0
 15 16  1  0
 16 17  2  0
 17 18  1  0
 18 19  3  0
 17 20  1  0
 20 21  2  0
 21 14  1  0
 12 22  2  0
 22  8  1  0
  5 23  1  0
 23 24  2  0
 24  2  1  0
M  END
> <Smiles>
Cc1ccc(CNc2ccnc(Nc3ccc(C#N)cc3)n2)cc1

> <IC50_uM>
0.013

> <pIC50>
7.886056648

> <Activity>
1

$$$$

  SciTegic10102310092D

 25 26  0  0  0  0            999 V2000
    5.1873   -7.5109    0.0000 C   0  0
    5.1894   -6.0109    0.0000 C   0  0
    3.8912   -5.2578    0.0000 O   0  0
    3.8933   -3.7570    0.0000 C   0  0
    2.5951   -3.0039    0.0000 C   0  0
    2.5973   -1.5031    0.0000 N   0  0
    3.8976   -0.7553    0.0000 C   0  0
    1.2990   -0.7500    0.0000 C   0  0
    1.2990    0.7500    0.0000 C   0  0
    2.5972    1.5031    0.0000 C   0  0
    2.5951    3.0039    0.0000 C   0  0
    3.8915    3.7585    0.0000 C   0  0
    3.8863    5.2585    0.0000 C   0  0
    2.5847    6.0040    0.0000 C   0  0
    1.2883    5.2495    0.0000 C   0  0
   -0.0134    5.9950    0.0000 C   0  0
    1.2934    3.7495    0.0000 C   0  0
    0.0000    1.5000    0.0000 C   0  0
   -0.0031    3.0008    0.0000 C   0  0
   -1.3032    3.7490    0.0000 C   0  0
   -1.2990    0.7500    0.0000 C   0  0
   -2.5981    1.5000    0.0000 C   0  0
   -1.2990   -0.7500    0.0000 N   0  0
    0.0000   -1.5000    0.0000 C   0  0
    0.0000   -3.0000    0.0000 O   0  0
  1  2  1  0
  2  3  1  0
  3  4  1  0
  4  5  1  0
  5  6  1  0
  6  7  1  0
  6  8  1  0
  8  9  2  0
  9 10  1  0
 10 11  1  0
 11 12  2  0
 12 13  1  0
 13 14  2  0
 14 15  1  0
 15 16  1  0
 15 17  2  0
 17 11  1  0
  9 18  1  0
 18 19  1  0
 19 20  1  0
 18 21  2  0
 21 22  1  0
 21 23  1  0
 23 24  1  0
 24  8  1  0
 24 25  2  0
M  END
> <Smiles>
CCOCCN(C)c1c(Cc2cccc(C)c2)c(CC)c(C)[nH]c1=O

> <IC50_uM>
0.013

> <pIC50>
7.886056648

> <Activity>
1

$$$$

  SciTegic10102310092D

 30 33  0  0  0  0            999 V2000
    3.1676   -7.5606    0.0000 C   0  0
    1.7006   -7.2475    0.0000 C   0  0
    0.6960   -8.3614    0.0000 C   0  0
   -0.7710   -8.0483    0.0000 C   0  0
   -1.7756   -9.1622    0.0000 C   0  0
   -1.2333   -6.6213    0.0000 C   0  0
   -0.2287   -5.5075    0.0000 C   0  0
   -0.6913   -4.0797    0.0000 S   0  0
   -2.1584   -3.7671    0.0000 O   0  0
   -1.6957   -5.1937    0.0000 O   0  0
    0.3114   -2.9665    0.0000 C   0  0
    1.8032   -3.1233    0.0000 C   0  0
    2.5551   -4.4192    0.0000 C   0  0
    1.8074   -5.7196    0.0000 O   0  0
    4.0559   -4.4171    0.0000 N   0  0
    4.8090   -5.7153    0.0000 C   0  0
    6.3098   -5.7131    0.0000 N   0  0
    7.1739   -6.9236    0.0000 C   0  0
    8.5988   -6.4551    0.0000 C   0  0
    8.5936   -4.9551    0.0000 C   0  0
    7.1654   -4.4965    0.0000 C   0  0
    2.4133   -1.7530    0.0000 N   0  0
    1.2990   -0.7500    0.0000 C   0  0
    1.2990    0.7500    0.0000 C   0  0
    0.0000    1.5000    0.0000 C   0  0
   -1.2990    0.7500    0.0000 C   0  0
   -2.5981    1.5000    0.0000 Br  0  0
   -1.2990   -0.7500    0.0000 C   0  0
    0.0000   -1.5000    0.0000 C   0  0
    1.2383   -5.8206    0.0000 C   0  0
  1  2  1  0
  2  3  2  0
  3  4  1  0
  4  5  1  0
  4  6  2  0
  6  7  1  0
  7  8  1  0
  8  9  2  0
  8 10  2  0
  8 11  1  0
 11 12  2  0
 12 13  1  0
 13 14  2  0
 13 15  1  0
 15 16  1  0
 16 17  1  0
 17 18  1  0
 18 19  1  0
 19 20  1  0
 20 21  1  0
 21 17  1  0
 12 22  1  0
 22 23  1  0
 23 24  2  0
 24 25  1  0
 25 26  2  0
 26 27  1  0
 26 28  1  0
 28 29  2  0
 29 11  1  0
 29 23  1  0
  7 30  2  0
 30  2  1  0
M  END
> <Smiles>
Cc1cc(C)cc(S(=O)(=O)c2c(C(=O)NCN3CCCC3)[nH]c3ccc(Br)cc23)c1

> <IC50_uM>
0.014

> <pIC50>
7.853871964

> <Activity>
1

$$$$

  SciTegic10102310092D

 25 27  0  0  0  0            999 V2000
    3.9075   -3.7444    0.0000 C   0  0
    2.6060   -2.9986    0.0000 O   0  0
    2.6003   -1.4977    0.0000 C   0  0  3  0  0  0
    1.2990   -0.7500    0.0000 C   0  0
    1.2990    0.7500    0.0000 N   0  0
    0.0000    1.5000    0.0000 C   0  0
   -0.0031    3.0008    0.0000 S   0  0
   -1.3039    3.7494    0.0000 C   0  0
   -1.4470    5.2297    0.0000 C   0  0
   -2.9153    5.5365    0.0000 C   0  0
   -3.6607    4.2349    0.0000 C   0  0
   -2.6532    3.1236    0.0000 C   0  0
   -1.2990    0.7500    0.0000 N   0  0
   -1.2990   -0.7500    0.0000 C   0  0
   -2.5981   -1.5000    0.0000 O   0  0
    0.0000   -1.5000    0.0000 C   0  0
    0.0000   -3.0000    0.0000 C   0  0
    3.8990   -0.7455    0.0000 C   0  0
    5.2007   -1.4909    0.0000 C   0  0
    5.2060   -2.9909    0.0000 F   0  0
    6.4972   -0.7364    0.0000 C   0  0
    6.4920    0.7636    0.0000 C   0  0
    5.1903    1.5091    0.0000 C   0  0
    3.8939    0.7546    0.0000 C   0  0
    2.5923    1.5001    0.0000 F   0  0
  1  2  1  0
  3  2  1  4
  3  4  1  0
  4  5  1  0
  5  6  2  0
  6  7  1  0
  7  8  1  0
  8  9  1  0
  9 10  1  0
 10 11  1  0
 11 12  1  0
 12  8  1  0
  6 13  1  0
 13 14  1  0
 14 15  2  0
 14 16  1  0
 16  4  2  0
 16 17  1  0
  3 18  1  0
 18 19  2  0
 19 20  1  0
 19 21  1  0
 21 22  2  0
 22 23  1  0
 23 24  2  0
 24 18  1  0
 24 25  1  0
M  END
> <Smiles>
COC(c1nc(SC2CCCC2)[nH]c(=O)c1C)c1c(F)cccc1F

> <IC50_uM>
0.014

> <pIC50>
7.853871964

> <Activity>
1

$$$$

  SciTegic10102310092D

 36 39  0  0  0  0            999 V2000
    2.5981   -1.5000    0.0000 C   0  0
    1.2990   -0.7500    0.0000 C   0  0
    1.2990    0.7500    0.0000 C   0  0
    0.0000    1.5000    0.0000 C   0  0
    0.0000    3.0008    0.0000 C   0  0
    0.0000    4.5008    0.0000 N   0  0
   -1.2990    0.7500    0.0000 C   0  0
   -1.2990   -0.7500    0.0000 C   0  0
   -2.5981   -1.5000    0.0000 C   0  0
    0.0000   -1.5000    0.0000 C   0  0
    0.0031   -3.0008    0.0000 O   0  0
    1.3039   -3.7494    0.0000 C   0  0
    2.6005   -2.9949    0.0000 N   0  0
    3.9021   -3.7404    0.0000 C   0  0
    5.2008   -2.9882    0.0000 N   0  0
    6.5021   -3.7360    0.0000 C   0  0
    7.8012   -2.9860    0.0000 C   0  0
    9.1002   -3.7360    0.0000 C   0  0
    9.1002   -5.2360    0.0000 N   0  0
   10.3984   -5.9891    0.0000 C   0  0
   10.3963   -7.4900    0.0000 C   0  0
   11.6927   -8.2445    0.0000 C   0  0
   11.6875   -9.7445    0.0000 C   0  0
   10.3859  -10.4900    0.0000 C   0  0
   10.3807  -11.9908    0.0000 S   0  0
    9.0788  -12.7359    0.0000 C   0  0
   11.6766  -12.7462    0.0000 O   0  0
   10.3748  -13.4908    0.0000 O   0  0
    9.0894   -9.7355    0.0000 C   0  0
    9.0946   -8.2355    0.0000 C   0  0
    7.8012   -5.9860    0.0000 C   0  0
    6.5021   -5.2360    0.0000 C   0  0
    3.9073   -5.2404    0.0000 N   0  0
    2.6108   -5.9949    0.0000 C   0  0
    1.3092   -5.2494    0.0000 C   0  0
    0.0128   -6.0039    0.0000 Br  0  0
  1  2  1  0
  2  3  2  0
  3  4  1  0
  4  5  1  0
  5  6  3  0
  4  7  2  0
  7  8  1  0
  8  9  1  0
  8 10  2  0
 10  2  1  0
 10 11  1  0
 11 12  1  0
 12 13  2  0
 13 14  1  0
 14 15  1  0
 15 16  1  0
 16 17  1  0
 17 18  1  0
 18 19  1  0
 19 20  1  0
 20 21  1  0
 21 22  2  0
 22 23  1  0
 23 24  2  0
 24 25  1  0
 25 26  1  0
 25 27  2  0
 25 28  2  0
 24 29  1  0
 29 30  2  0
 30 21  1  0
 19 31  1  0
 31 32  1  0
 32 16  1  0
 14 33  2  0
 33 34  1  0
 34 35  2  0
 35 12  1  0
 35 36  1  0
M  END
> <Smiles>
Cc1cc(C#N)cc(C)c1Oc1nc(NC2CCN(Cc3ccc(S(C)(=O)=O)cc3)CC2)ncc1Br

> <IC50_uM>
0.014

> <pIC50>
7.853871964

> <Activity>
1

$$$$

  SciTegic10102310092D

 31 34  0  0  0  0            999 V2000
    3.1676   -7.5606    0.0000 C   0  0
    1.7006   -7.2475    0.0000 C   0  0
    0.6960   -8.3614    0.0000 C   0  0
   -0.7710   -8.0483    0.0000 C   0  0
   -1.7756   -9.1622    0.0000 C   0  0
   -1.2333   -6.6213    0.0000 C   0  0
   -0.2287   -5.5075    0.0000 C   0  0
   -0.6913   -4.0797    0.0000 S   0  0
   -2.1584   -3.7671    0.0000 O   0  0
   -1.6957   -5.1937    0.0000 O   0  0
    0.3114   -2.9665    0.0000 C   0  0
    1.8032   -3.1233    0.0000 C   0  0
    2.5551   -4.4192    0.0000 C   0  0
    1.8074   -5.7196    0.0000 O   0  0
    4.0559   -4.4171    0.0000 N   0  0
    4.8090   -5.7153    0.0000 C   0  0
    6.3098   -5.7131    0.0000 C   0  0
    7.0629   -7.0113    0.0000 N   0  0
    8.5438   -7.1491    0.0000 C   0  0
    8.8557   -8.6163    0.0000 C   0  0
    7.5567   -9.3664    0.0000 C   0  0
    6.4419   -8.3627    0.0000 C   0  0
    2.4133   -1.7530    0.0000 N   0  0
    1.2990   -0.7500    0.0000 C   0  0
    1.2990    0.7500    0.0000 C   0  0
    0.0000    1.5000    0.0000 C   0  0
   -1.2990    0.7500    0.0000 C   0  0
   -2.5981    1.5000    0.0000 Cl  0  0
   -1.2990   -0.7500    0.0000 C   0  0
    0.0000   -1.5000    0.0000 C   0  0
    1.2383   -5.8206    0.0000 C   0  0
  1  2  1  0
  2  3  2  0
  3  4  1  0
  4  5  1  0
  4  6  2  0
  6  7  1  0
  7  8  1  0
  8  9  2  0
  8 10  2  0
  8 11  1  0
 11 12  2  0
 12 13  1  0
 13 14  2  0
 13 15  1  0
 15 16  1  0
 16 17  1  0
 17 18  1  0
 18 19  1  0
 19 20  2  0
 20 21  1  0
 21 22  2  0
 22 18  1  0
 12 23  1  0
 23 24  1  0
 24 25  2  0
 25 26  1  0
 26 27  2  0
 27 28  1  0
 27 29  1  0
 29 30  2  0
 30 11  1  0
 30 24  1  0
  7 31  2  0
 31  2  1  0
M  END
> <Smiles>
Cc1cc(C)cc(S(=O)(=O)c2c(C(=O)NCCn3cccc3)[nH]c3ccc(Cl)cc23)c1

> <IC50_uM>
0.014

> <pIC50>
7.853871964

> <Activity>
1

$$$$

  SciTegic10102310092D

 34 37  0  0  0  0            999 V2000
    2.5981   -1.5000    0.0000 C   0  0
    1.2990   -0.7500    0.0000 C   0  0
    1.2990    0.7500    0.0000 C   0  0
    0.0000    1.5000    0.0000 C   0  0
    0.0000    3.0008    0.0000 C   0  0
    0.0000    4.5008    0.0000 N   0  0
   -1.2990    0.7500    0.0000 C   0  0
   -1.2990   -0.7500    0.0000 C   0  0
   -2.5981   -1.5000    0.0000 C   0  0
    0.0000   -1.5000    0.0000 C   0  0
    0.0031   -3.0008    0.0000 O   0  0
    1.3039   -3.7494    0.0000 C   0  0
    2.6005   -2.9949    0.0000 N   0  0
    3.9021   -3.7404    0.0000 C   0  0
    5.2008   -2.9882    0.0000 N   0  0
    6.5021   -3.7360    0.0000 C   0  0
    7.8012   -2.9860    0.0000 C   0  0
    9.1002   -3.7360    0.0000 C   0  0
    9.1002   -5.2360    0.0000 N   0  0
   10.3999   -5.9864    0.0000 C   0  0
   11.7002   -5.2385    0.0000 C   0  0
   12.9981   -5.9906    0.0000 C   0  0
   12.9957   -7.4906    0.0000 C   0  0
   11.6954   -8.2385    0.0000 C   0  0
   11.6900   -9.7394    0.0000 C   0  0
   12.9865  -10.4937    0.0000 N   0  0
   10.3887  -10.4854    0.0000 O   0  0
   10.3976   -7.4865    0.0000 C   0  0
    7.8012   -5.9860    0.0000 C   0  0
    6.5021   -5.2360    0.0000 C   0  0
    3.9073   -5.2404    0.0000 N   0  0
    2.6108   -5.9949    0.0000 C   0  0
    1.3092   -5.2494    0.0000 C   0  0
    0.0128   -6.0039    0.0000 F   0  0
  1  2  1  0
  2  3  2  0
  3  4  1  0
  4  5  1  0
  5  6  3  0
  4  7  2  0
  7  8  1  0
  8  9  1  0
  8 10  2  0
 10  2  1  0
 10 11  1  0
 11 12  1  0
 12 13  2  0
 13 14  1  0
 14 15  1  0
 15 16  1  0
 16 17  1  0
 17 18  1  0
 18 19  1  0
 19 20  1  0
 20 21  2  0
 21 22  1  0
 22 23  2  0
 23 24  1  0
 24 25  1  0
 25 26  1  0
 25 27  2  0
 24 28  2  0
 28 20  1  0
 19 29  1  0
 29 30  1  0
 30 16  1  0
 14 31  2  0
 31 32  1  0
 32 33  2  0
 33 12  1  0
 33 34  1  0
M  END
> <Smiles>
Cc1cc(C#N)cc(C)c1Oc1nc(NC2CCN(c3cccc(C(N)=O)c3)CC2)ncc1F

> <IC50_uM>
0.014

> <pIC50>
7.853871964

> <Activity>
1

$$$$

  SciTegic10102310092D

 28 31  0  0  0  0            999 V2000
   -6.0840   -4.2660    0.0000 N   0  0
   -5.6208   -5.6927    0.0000 C   0  0
   -5.1572   -7.1201    0.0000 C   0  0
   -6.1611   -8.2347    0.0000 C   0  0
   -5.6979   -9.6613    0.0000 C   0  0
   -6.7018  -10.7759    0.0000 Cl  0  0
   -4.2307   -9.9735    0.0000 C   0  0
   -3.2267   -8.8590    0.0000 C   0  0
   -1.7581   -9.1683    0.0000 O   0  0
   -0.7552   -8.0517    0.0000 C   0  0
    0.7130   -8.3588    0.0000 C   0  0
    1.1812   -9.7838    0.0000 Br  0  0
    1.7131   -7.2408    0.0000 C   0  0
    1.2449   -5.8157    0.0000 C   0  0
   -0.2234   -5.5086    0.0000 C   0  0
   -0.6890   -4.0818    0.0000 C   0  0
    0.3114   -2.9665    0.0000 C   0  0
    1.8032   -3.1233    0.0000 N   0  0
    2.4133   -1.7530    0.0000 N   0  0
    1.2990   -0.7500    0.0000 C   0  0
    1.2990    0.7500    0.0000 N   0  0
    0.0000    1.5000    0.0000 C   0  0
   -1.2990    0.7500    0.0000 C   0  0
   -1.2990   -0.7500    0.0000 N   0  0
    0.0000   -1.5000    0.0000 C   0  0
   -1.2234   -6.6267    0.0000 C   0  0
   -2.6917   -6.3197    0.0000 F   0  0
   -3.6901   -7.4323    0.0000 C   0  0
  1  2  3  0
  2  3  1  0
  3  4  2  0
  4  5  1  0
  5  6  1  0
  5  7  2  0
  7  8  1  0
  8  9  1  0
  9 10  1  0
 10 11  2  0
 11 12  1  0
 11 13  1  0
 13 14  2  0
 14 15  1  0
 15 16  1  0
 16 17  1  0
 17 18  2  0
 18 19  1  0
 19 20  1  0
 20 21  2  0
 21 22  1  0
 22 23  2  0
 23 24  1  0
 24 25  2  0
 25 17  1  0
 25 20  1  0
 15 26  2  0
 26 10  1  0
 26 27  1  0
  8 28  2  0
 28  3  1  0
M  END
> <Smiles>
N#Cc1cc(Cl)cc(Oc2c(Br)ccc(Cc3n[nH]c4nccnc34)c2F)c1

> <IC50_uM>
0.014

> <pIC50>
7.853871964

> <Activity>
1

$$$$

  SciTegic10102310092D

 27 29  0  0  0  0            999 V2000
    3.8978   -2.2504    0.0000 N   0  0
    2.5988   -1.5004    0.0000 C   0  0
    1.2990   -0.7500    0.0000 C   0  0
    1.2990    0.7500    0.0000 C   0  0
    0.0000    1.5000    0.0000 C   0  0
    0.0000    3.0000    0.0000 Cl  0  0
   -1.2990    0.7500    0.0000 C   0  0
   -1.2990   -0.7500    0.0000 C   0  0
   -2.5972   -1.5031    0.0000 O   0  0
   -2.5951   -3.0039    0.0000 C   0  0
   -3.8915   -3.7585    0.0000 C   0  0
   -5.1954   -3.0153    0.0000 C   0  0
   -6.4915   -3.7721    0.0000 C   0  0
   -7.7954   -3.0289    0.0000 O   0  0
   -9.0914   -3.7857    0.0000 C   0  0
  -10.3957   -3.0449    0.0000 C   0  0
  -11.6895   -3.8039    0.0000 C   0  0
  -11.6791   -5.3039    0.0000 N   0  0
  -10.3748   -6.0448    0.0000 C   0  0
   -9.0811   -5.2858    0.0000 C   0  0
   -3.8863   -5.2585    0.0000 C   0  0
   -2.5847   -6.0040    0.0000 N   0  0
   -1.2883   -5.2495    0.0000 C   0  0
    0.0134   -5.9950    0.0000 O   0  0
   -1.2935   -3.7495    0.0000 C   0  0
    0.0030   -2.9951    0.0000 Br  0  0
    0.0000   -1.5000    0.0000 C   0  0
  1  2  3  0
  2  3  1  0
  3  4  2  0
  4  5  1  0
  5  6  1  0
  5  7  2  0
  7  8  1  0
  8  9  1  0
  9 10  1  0
 10 11  1  0
 11 12  1  0
 12 13  1  0
 13 14  1  0
 14 15  1  0
 15 16  2  0
 16 17  1  0
 17 18  2  0
 18 19  1  0
 19 20  2  0
 20 15  1  0
 11 21  2  0
 21 22  1  0
 22 23  1  0
 23 24  2  0
 23 25  1  0
 25 10  2  0
 25 26  1  0
  8 27  2  0
 27  3  1  0
M  END
> <Smiles>
N#Cc1cc(Cl)cc(Oc2c(CCOc3ccncc3)c[nH]c(=O)c2Br)c1

> <IC50_uM>
0.014

> <pIC50>
7.853871964

> <Activity>
1

$$$$

  SciTegic10102310092D

 26 28  0  0  0  0            999 V2000
    3.8978   -2.2504    0.0000 N   0  0
    2.5988   -1.5004    0.0000 C   0  0
    1.2990   -0.7500    0.0000 C   0  0
    1.2990    0.7500    0.0000 C   0  0
    0.0000    1.5000    0.0000 C   0  0
    0.0000    3.0000    0.0000 Cl  0  0
   -1.2990    0.7500    0.0000 C   0  0
   -1.2990   -0.7500    0.0000 C   0  0
   -2.5972   -1.5031    0.0000 O   0  0
   -2.5951   -3.0039    0.0000 C   0  0
   -1.2935   -3.7495    0.0000 C   0  0
   -1.2883   -5.2495    0.0000 C   0  0
    0.0125   -5.9981    0.0000 C   0  0
    0.0156   -7.4989    0.0000 C   0  0
    1.3164   -8.2475    0.0000 C   0  0
    1.3216   -9.7475    0.0000 C   0  0
    2.6232  -10.4931    0.0000 C   0  0
    3.9197   -9.7386    0.0000 N   0  0
    3.9145   -8.2386    0.0000 C   0  0
    2.6129   -7.4931    0.0000 C   0  0
   -2.5847   -6.0040    0.0000 N   0  0
   -3.8863   -5.2585    0.0000 C   0  0
   -5.1828   -6.0130    0.0000 O   0  0
   -3.8915   -3.7585    0.0000 C   0  0
   -5.1932   -3.0130    0.0000 Cl  0  0
    0.0000   -1.5000    0.0000 C   0  0
  1  2  3  0
  2  3  1  0
  3  4  2  0
  4  5  1  0
  5  6  1  0
  5  7  2  0
  7  8  1  0
  8  9  1  0
  9 10  1  0
 10 11  1  0
 11 12  2  0
 12 13  1  0
 13 14  1  0
 14 15  1  0
 15 16  2  0
 16 17  1  0
 17 18  2  0
 18 19  1  0
 19 20  2  0
 20 15  1  0
 12 21  1  0
 21 22  1  0
 22 23  2  0
 22 24  1  0
 24 10  2  0
 24 25  1  0
  8 26  2  0
 26  3  1  0
M  END
> <Smiles>
N#Cc1cc(Cl)cc(Oc2cc(CCc3ccncc3)[nH]c(=O)c2Cl)c1

> <IC50_uM>
0.014

> <pIC50>
7.853871964

> <Activity>
1

$$$$

  SciTegic10102310092D

 32 34  0  0  0  0            999 V2000
    3.8978   -2.2504    0.0000 N   0  0
    2.5988   -1.5004    0.0000 C   0  0
    1.2990   -0.7500    0.0000 C   0  0
    1.2990    0.7500    0.0000 C   0  0
    0.0000    1.5000    0.0000 C   0  0
   -1.2990    0.7500    0.0000 C   0  0
   -1.2990   -0.7500    0.0000 C   0  0
   -2.5972   -1.5031    0.0000 O   0  0
   -2.5951   -3.0039    0.0000 C   0  0
   -3.8915   -3.7585    0.0000 C   0  0
   -3.8863   -5.2585    0.0000 C   0  0
   -5.1828   -6.0130    0.0000 Cl  0  0
   -2.5847   -6.0040    0.0000 C   0  0
   -1.2883   -5.2495    0.0000 C   0  0
    0.0156   -5.9927    0.0000 O   0  0
    1.3117   -5.2360    0.0000 C   0  0
    2.6156   -5.9792    0.0000 C   0  0
    2.6234   -7.4792    0.0000 O   0  0
    3.9116   -5.2225    0.0000 N   0  0
    5.2155   -5.9657    0.0000 C   0  0
    5.2208   -7.4658    0.0000 C   0  0
    6.5225   -8.2112    0.0000 C   0  0
    7.8189   -7.4567    0.0000 C   0  0
    9.1212   -8.2026    0.0000 S   0  0
   10.4174   -7.4476    0.0000 N   0  0
    9.1274   -9.7025    0.0000 O   0  0
   10.4232   -8.9474    0.0000 O   0  0
    7.8136   -5.9567    0.0000 C   0  0
    6.5120   -5.2112    0.0000 C   0  0
    6.5068   -3.7112    0.0000 Cl  0  0
   -1.2935   -3.7495    0.0000 C   0  0
    0.0000   -1.5000    0.0000 C   0  0
  1  2  3  0
  2  3  1  0
  3  4  2  0
  4  5  1  0
  5  6  2  0
  6  7  1  0
  7  8  1  0
  8  9  1  0
  9 10  2  0
 10 11  1  0
 11 12  1  0
 11 13  2  0
 13 14  1  0
 14 15  1  0
 15 16  1  0
 16 17  1  0
 17 18  2  0
 17 19  1  0
 19 20  1  0
 20 21  2  0
 21 22  1  0
 22 23  2  0
 23 24  1  0
 24 25  1  0
 24 26  2  0
 24 27  2  0
 23 28  1  0
 28 29  2  0
 29 20  1  0
 29 30  1  0
 14 31  2  0
 31  9  1  0
  7 32  2  0
 32  3  1  0
M  END
> <Smiles>
N#Cc1cccc(Oc2cc(Cl)cc(OCC(=O)Nc3ccc(S(N)(=O)=O)cc3Cl)c2)c1

> <IC50_uM>
0.0144

> <pIC50>
7.841637508

> <Activity>
1

$$$$

  SciTegic10102310092D

 36 40  0  0  0  0            999 V2000
    2.5923    1.5001    0.0000 C   0  0
    3.8939    0.7546    0.0000 C   0  0
    5.1903    1.5091    0.0000 C   0  0
    6.4920    0.7636    0.0000 C   0  0
    7.7907    1.5158    0.0000 C   0  0
    9.0920    0.7680    0.0000 C   0  0
   10.3907    1.5203    0.0000 C   0  0
   11.6886    2.2721    0.0000 N   0  0
    6.4972   -0.7364    0.0000 C   0  0
    5.2007   -1.4909    0.0000 C   0  0
    5.2059   -2.9909    0.0000 C   0  0
    3.8990   -0.7455    0.0000 C   0  0
    2.6003   -1.4977    0.0000 O   0  0
    1.2990   -0.7500    0.0000 C   0  0
    1.2990    0.7500    0.0000 N   0  0
    0.0000    1.5000    0.0000 C   0  0
   -0.0031    3.0008    0.0000 N   0  0
   -1.3039    3.7494    0.0000 C   0  0
   -1.3092    5.2494    0.0000 C   0  0
   -2.6108    5.9949    0.0000 C   0  0
   -3.9073    5.2404    0.0000 N   0  0
   -5.2112    5.9836    0.0000 C   0  0
   -6.5072    5.2269    0.0000 C   0  0
   -7.8115    5.9678    0.0000 C   0  0
   -9.1053    5.2088    0.0000 C   0  0
   -9.0949    3.7089    0.0000 N   0  0
   -7.7907    2.9679    0.0000 C   0  0
   -6.4969    3.7269    0.0000 C   0  0
   -3.9021    3.7404    0.0000 C   0  0
   -2.6005    2.9949    0.0000 C   0  0
   -1.2990    0.7500    0.0000 N   0  0
   -1.2990   -0.7500    0.0000 C   0  0
   -2.4133   -1.7530    0.0000 C   0  0
   -1.8032   -3.1233    0.0000 C   0  0
   -0.3114   -2.9665    0.0000 S   0  0
    0.0000   -1.5000    0.0000 C   0  0
  1  2  1  0
  2  3  2  0
  3  4  1  0
  4  5  1  0
  5  6  2  0
  6  7  1  0
  7  8  3  0
  4  9  2  0
  9 10  1  0
 10 11  1  0
 10 12  2  0
 12  2  1  0
 12 13  1  0
 13 14  1  0
 14 15  2  0
 15 16  1  0
 16 17  1  0
 17 18  1  0
 18 19  1  0
 19 20  1  0
 20 21  1  0
 21 22  1  0
 22 23  1  0
 23 24  2  0
 24 25  1  0
 25 26  2  0
 26 27  1  0
 27 28  2  0
 28 23  1  0
 21 29  1  0
 29 30  1  0
 30 18  1  0
 16 31  2  0
 31 32  1  0
 32 33  1  0
 33 34  2  0
 34 35  1  0
 35 36  1  0
 36 14  1  0
 36 32  2  0
M  END
> <Smiles>
Cc1cc(/C=C/C#N)cc(C)c1Oc1nc(NC2CCN(Cc3ccncc3)CC2)nc2ccsc12

> <IC50_uM>
0.0148

> <pIC50>
7.829738285

> <Activity>
1

$$$$

  SciTegic10102310092D

 34 37  0  0  0  0            999 V2000
    2.5981   -1.5000    0.0000 C   0  0
    1.2990   -0.7500    0.0000 C   0  0
    1.2990    0.7500    0.0000 C   0  0
    0.0000    1.5000    0.0000 N   0  0
   -1.2990    0.7500    0.0000 C   0  0
   -2.6003    1.4977    0.0000 N   0  0
   -3.8990    0.7455    0.0000 C   0  0
   -5.2007    1.4909    0.0000 C   0  0
   -6.4972    0.7364    0.0000 C   0  0
   -6.4920   -0.7636    0.0000 N   0  0
   -7.7890   -1.5185    0.0000 C   0  0
   -9.0920   -0.7751    0.0000 C   0  0
  -10.3872   -1.5316    0.0000 C   0  0
  -10.3796   -3.0316    0.0000 C   0  0
   -9.0768   -3.7750    0.0000 C   0  0
   -9.0661   -5.2758    0.0000 C   0  0
  -10.3601   -6.0346    0.0000 N   0  0
   -7.7623   -6.0174    0.0000 O   0  0
   -7.7816   -3.0185    0.0000 C   0  0
   -5.1903   -1.5091    0.0000 C   0  0
   -3.8939   -0.7546    0.0000 C   0  0
   -1.2990   -0.7500    0.0000 N   0  0
    0.0000   -1.5000    0.0000 C   0  0
   -0.0031   -3.0008    0.0000 O   0  0
   -1.3039   -3.7494    0.0000 C   0  0
   -1.3092   -5.2494    0.0000 C   0  0
   -0.0128   -6.0039    0.0000 C   0  0
   -2.6108   -5.9949    0.0000 C   0  0
   -3.9072   -5.2404    0.0000 C   0  0
   -5.2096   -5.9864    0.0000 C   0  0
   -6.5112   -6.7319    0.0000 N   0  0
   -3.9020   -3.7404    0.0000 C   0  0
   -2.6004   -2.9949    0.0000 C   0  0
   -2.5953   -1.4949    0.0000 C   0  0
  1  2  1  0
  2  3  2  0
  3  4  1  0
  4  5  2  0
  5  6  1  0
  6  7  1  0
  7  8  1  0
  8  9  1  0
  9 10  1  0
 10 11  1  0
 11 12  2  0
 12 13  1  0
 13 14  2  0
 14 15  1  0
 15 16  1  0
 16 17  1  0
 16 18  2  0
 15 19  2  0
 19 11  1  0
 10 20  1  0
 20 21  1  0
 21  7  1  0
  5 22  1  0
 22 23  2  0
 23  2  1  0
 23 24  1  0
 24 25  1  0
 25 26  2  0
 26 27  1  0
 26 28  1  0
 28 29  2  0
 29 30  1  0
 30 31  3  0
 29 32  1  0
 32 33  2  0
 33 25  1  0
 33 34  1  0
M  END
> <Smiles>
Cc1cnc(NC2CCN(c3cccc(C(N)=O)c3)CC2)nc1Oc1c(C)cc(C#N)cc1C

> <IC50_uM>
0.015

> <pIC50>
7.823908741

> <Activity>
1

$$$$

  SciTegic10102310092D

 27 28  0  0  1  0            999 V2000
    2.5981   -1.5000    0.0000 N   0  0
    1.2990   -0.7500    0.0000 C   0  0
    1.2990    0.7500    0.0000 C   0  0
    0.0000    1.5000    0.0000 C   0  0
   -1.2990    0.7500    0.0000 N   0  0
   -2.5987    1.5004    0.0000 C   0  0  2  0  0  0
   -2.7390    2.9810    0.0000 C   0  0
   -4.2067    3.2905    0.0000 S   0  0
   -4.9546    1.9903    0.0000 C   0  0  2  0  0  0
   -6.4447    1.8344    0.0000 C   0  0
   -7.3271    3.0485    0.0000 O   0  0
   -8.8198    2.8923    0.0000 P   0  0
   -9.4301    1.5221    0.0000 O   0  0
   -7.9385    1.6785    0.0000 O   0  0
   -9.7021    4.1064    0.0000 O   0  0
  -11.1948    3.9502    0.0000 P   0  0
  -11.8051    2.5800    0.0000 O   0  0
  -10.3135    2.7364    0.0000 O   0  0
  -12.0771    5.1643    0.0000 O   0  0
  -13.5698    5.0082    0.0000 P   0  0
  -14.4517    6.2215    0.0000 O   0  0
  -14.1801    3.6379    0.0000 O   0  0
  -15.0616    4.8514    0.0000 O   0  0
   -3.9492    0.8772    0.0000 O   0  0
   -1.2990   -0.7500    0.0000 C   0  0
   -2.5981   -1.5000    0.0000 O   0  0
    0.0000   -1.5000    0.0000 N   0  0
  1  2  1  0
  2  3  1  0
  3  4  2  0
  4  5  1  0
  6  5  1  1
  6  7  1  0
  7  8  1  0
  8  9  1  0
  9 10  1  1
 10 11  1  0
 11 12  1  0
 12 13  2  0
 12 14  1  0
 12 15  1  0
 15 16  1  0
 16 17  2  0
 16 18  1  0
 16 19  1  0
 19 20  1  0
 20 21  2  0
 20 22  1  0
 20 23  1  0
  9 24  1  0
 24  6  1  0
  5 25  1  0
 25 26  2  0
 25 27  1  0
 27  2  2  0
M  END
> <Smiles>
Nc1ccn([C@@H]2CS[C@H](COP(=O)(O)OP(=O)(O)OP(=O)(O)O)O2)c(=O)n1

> <IC50_uM>
0.015

> <pIC50>
7.823908741

> <Activity>
1

$$$$

  SciTegic10102310092D

 24 25  0  0  0  0            999 V2000
    3.8912   -5.2570    0.0000 C   0  0
    3.8933   -3.7570    0.0000 C   0  0
    2.5951   -3.0039    0.0000 C   0  0  3  0  0  0
    1.2948   -3.7516    0.0000 C   0  0
    2.5973   -1.5031    0.0000 S   0  0
    1.2990   -0.7500    0.0000 C   0  0
    1.2990    0.7500    0.0000 N   0  0
    0.0000    1.5000    0.0000 C   0  0
    0.0031    3.0008    0.0000 C   0  0  3  0  0  0
   -1.2938    3.7562    0.0000 O   0  0
   -1.2891    5.2562    0.0000 C   0  0
    1.3039    3.7494    0.0000 C   0  0
    1.3092    5.2494    0.0000 C   0  0
    0.0127    6.0039    0.0000 Cl  0  0
    2.6108    5.9949    0.0000 C   0  0
    3.9072    5.2405    0.0000 C   0  0
    3.9020    3.7405    0.0000 C   0  0
    2.6004    2.9949    0.0000 C   0  0
    2.5953    1.4950    0.0000 Cl  0  0
   -1.2990    0.7500    0.0000 C   0  0
   -2.5981    1.5000    0.0000 C   0  0
   -1.2990   -0.7500    0.0000 C   0  0
   -2.5981   -1.5000    0.0000 O   0  0
    0.0000   -1.5000    0.0000 N   0  0
  1  2  1  0
  2  3  1  0
  3  4  1  4
  3  5  1  0
  5  6  1  0
  6  7  2  0
  7  8  1  0
  8  9  1  0
  9 10  1  4
 10 11  1  0
  9 12  1  0
 12 13  2  0
 13 14  1  0
 13 15  1  0
 15 16  2  0
 16 17  1  0
 17 18  2  0
 18 12  1  0
 18 19  1  0
  8 20  2  0
 20 21  1  0
 20 22  1  0
 22 23  2  0
 22 24  1  0
 24  6  1  0
M  END
> <Smiles>
CCC(C)Sc1nc(C(OC)c2c(Cl)cccc2Cl)c(C)c(=O)[nH]1

> <IC50_uM>
0.015

> <pIC50>
7.823908741

> <Activity>
1

$$$$

  SciTegic10102310092D

 30 33  0  0  0  0            999 V2000
   -6.0840   -4.2660    0.0000 N   0  0
   -5.6208   -5.6927    0.0000 C   0  0
   -5.1572   -7.1201    0.0000 C   0  0
   -6.1611   -8.2347    0.0000 C   0  0
   -5.6979   -9.6613    0.0000 C   0  0
   -6.7018  -10.7759    0.0000 Cl  0  0
   -4.2307   -9.9735    0.0000 C   0  0
   -3.2267   -8.8590    0.0000 C   0  0
   -1.7581   -9.1683    0.0000 O   0  0
   -0.7552   -8.0517    0.0000 C   0  0
    0.7130   -8.3588    0.0000 C   0  0
    1.1812   -9.7838    0.0000 Br  0  0
    1.7131   -7.2408    0.0000 C   0  0
    1.2449   -5.8157    0.0000 C   0  0
   -0.2234   -5.5086    0.0000 C   0  0
   -0.6890   -4.0818    0.0000 C   0  0
    0.3114   -2.9665    0.0000 C   0  0
    1.8032   -3.1233    0.0000 N   0  0
    2.4133   -1.7530    0.0000 N   0  0
    1.2990   -0.7500    0.0000 C   0  0
    1.2990    0.7500    0.0000 C   0  0
    2.5988    1.5004    0.0000 C   0  0
    3.8978    2.2504    0.0000 N   0  0
    0.0000    1.5000    0.0000 C   0  0
   -1.2990    0.7500    0.0000 C   0  0
   -1.2990   -0.7500    0.0000 C   0  0
    0.0000   -1.5000    0.0000 C   0  0
   -1.2234   -6.6267    0.0000 C   0  0
   -2.6917   -6.3197    0.0000 F   0  0
   -3.6901   -7.4323    0.0000 C   0  0
  1  2  3  0
  2  3  1  0
  3  4  2  0
  4  5  1  0
  5  6  1  0
  5  7  2  0
  7  8  1  0
  8  9  1  0
  9 10  1  0
 10 11  2  0
 11 12  1  0
 11 13  1  0
 13 14  2  0
 14 15  1  0
 15 16  1  0
 16 17  1  0
 17 18  2  0
 18 19  1  0
 19 20  1  0
 20 21  2  0
 21 22  1  0
 22 23  3  0
 21 24  1  0
 24 25  2  0
 25 26  1  0
 26 27  2  0
 27 17  1  0
 27 20  1  0
 15 28  2  0
 28 10  1  0
 28 29  1  0
  8 30  2  0
 30  3  1  0
M  END
> <Smiles>
N#Cc1cc(Cl)cc(Oc2c(Br)ccc(Cc3n[nH]c4c(C#N)cccc34)c2F)c1

> <IC50_uM>
0.015

> <pIC50>
7.823908741

> <Activity>
1

$$$$

  SciTegic10102310092D

 27 29  0  0  0  0            999 V2000
    2.5981   -1.5000    0.0000 O   0  0
    1.2990   -0.7500    0.0000 C   0  0
    1.2990    0.7500    0.0000 C   0  0
    0.0000    1.5000    0.0000 C   0  0
   -0.0031    3.0008    0.0000 C   0  0
   -1.3039    3.7494    0.0000 C   0  0
   -1.3092    5.2494    0.0000 C   0  0
   -2.6108    5.9949    0.0000 C   0  0
   -3.9073    5.2404    0.0000 C   0  0
   -5.2096    5.9863    0.0000 C   0  0
   -5.2172    7.4863    0.0000 C   0  0
   -6.5200    8.2297    0.0000 C   0  0
   -6.5276    9.7297    0.0000 Cl  0  0
   -7.8153    7.4732    0.0000 C   0  0
   -7.8077    5.9732    0.0000 C   0  0
   -9.1036    5.2162    0.0000 C   0  0
  -10.4069    5.9589    0.0000 F   0  0
   -9.0956    3.7163    0.0000 F   0  0
  -10.3985    4.4591    0.0000 F   0  0
   -6.5049    5.2298    0.0000 C   0  0
   -3.9021    3.7404    0.0000 C   0  0
   -2.6005    2.9949    0.0000 C   0  0
   -1.2990    0.7500    0.0000 N   0  0
   -1.2990   -0.7500    0.0000 C   0  0
   -2.5981   -1.5000    0.0000 O   0  0
    0.0000   -1.5000    0.0000 N   0  0
    0.0000   -3.0000    0.0000 O   0  0
  1  2  2  0
  2  3  1  0
  3  4  2  0
  4  5  1  0
  5  6  1  0
  6  7  2  0
  7  8  1  0
  8  9  2  0
  9 10  1  0
 10 11  2  0
 11 12  1  0
 12 13  1  0
 12 14  2  0
 14 15  1  0
 15 16  1  0
 16 17  1  0
 16 18  1  0
 16 19  1  0
 15 20  2  0
 20 10  1  0
  9 21  1  0
 21 22  2  0
 22  6  1  0
  4 23  1  0
 23 24  1  0
 24 25  2  0
 24 26  1  0
 26  2  1  0
 26 27  1  0
M  END
> <Smiles>
O=c1cc(Cc2ccc(-c3cc(Cl)cc(C(F)(F)F)c3)cc2)[nH]c(=O)n1O

> <IC50_uM>
0.015

> <pIC50>
7.823908741

> <Activity>
1

$$$$

  SciTegic10102310092D

 24 26  0  0  0  0            999 V2000
    2.5981   -1.5000    0.0000 O   0  0
    1.2990   -0.7500    0.0000 C   0  0
    1.2990    0.7500    0.0000 C   0  0
    0.0000    1.5000    0.0000 C   0  0
   -0.0031    3.0008    0.0000 C   0  0
   -1.3039    3.7494    0.0000 C   0  0
   -1.3092    5.2494    0.0000 C   0  0
   -2.6108    5.9949    0.0000 C   0  0
   -3.9073    5.2404    0.0000 C   0  0
   -5.2096    5.9863    0.0000 C   0  0
   -6.5049    5.2298    0.0000 C   0  0
   -7.8077    5.9732    0.0000 C   0  0
   -7.8153    7.4732    0.0000 C   0  0
   -9.1181    8.2166    0.0000 F   0  0
   -6.5200    8.2297    0.0000 C   0  0
   -5.2172    7.4863    0.0000 C   0  0
   -3.9220    8.2429    0.0000 F   0  0
   -3.9021    3.7404    0.0000 C   0  0
   -2.6005    2.9949    0.0000 C   0  0
   -1.2990    0.7500    0.0000 N   0  0
   -1.2990   -0.7500    0.0000 C   0  0
   -2.5981   -1.5000    0.0000 O   0  0
    0.0000   -1.5000    0.0000 N   0  0
    0.0000   -3.0000    0.0000 O   0  0
  1  2  2  0
  2  3  1  0
  3  4  2  0
  4  5  1  0
  5  6  1  0
  6  7  2  0
  7  8  1  0
  8  9  2  0
  9 10  1  0
 10 11  2  0
 11 12  1  0
 12 13  2  0
 13 14  1  0
 13 15  1  0
 15 16  2  0
 16 10  1  0
 16 17  1  0
  9 18  1  0
 18 19  2  0
 19  6  1  0
  4 20  1  0
 20 21  1  0
 21 22  2  0
 21 23  1  0
 23  2  1  0
 23 24  1  0
M  END
> <Smiles>
O=c1cc(Cc2ccc(-c3ccc(F)cc3F)cc2)[nH]c(=O)n1O

> <IC50_uM>
0.015

> <pIC50>
7.823908741

> <Activity>
1

$$$$

  SciTegic10102310092D

 27 29  0  0  0  0            999 V2000
    3.8926   -3.7566    0.0000 C   0  0
    2.5951   -3.0039    0.0000 O   0  0
    2.5973   -1.5031    0.0000 C   0  0
    3.8976   -0.7553    0.0000 O   0  0
    1.2990   -0.7500    0.0000 C   0  0
    1.2990    0.7500    0.0000 C   0  0
    0.0000    1.5000    0.0000 C   0  0
   -1.2990    0.7500    0.0000 C   0  0
   -2.5987    1.5004    0.0000 C   0  0
   -2.6012    3.0004    0.0000 C   0  0
   -3.9015    3.7484    0.0000 C   0  0
   -5.1993    2.9963    0.0000 C   0  0
   -6.5018    3.7420    0.0000 C   0  0
   -6.5068    5.2419    0.0000 O   0  0
   -7.7993    2.9876    0.0000 C   0  0
   -9.1021    3.7310    0.0000 C   0  0
  -10.3974    2.9744    0.0000 C   0  0
  -11.7002    3.7179    0.0000 O   0  0
  -10.3898    1.4745    0.0000 N   0  0
  -11.6850    0.7179    0.0000 O   0  0
   -9.0870    0.7310    0.0000 C   0  0
   -9.0794   -0.7689    0.0000 O   0  0
   -7.7918    1.4876    0.0000 N   0  0
   -5.1969    1.4963    0.0000 C   0  0
   -3.8967    0.7484    0.0000 C   0  0
   -1.2990   -0.7500    0.0000 C   0  0
    0.0000   -1.5000    0.0000 C   0  0
  1  2  1  0
  2  3  1  0
  3  4  2  0
  3  5  1  0
  5  6  2  0
  6  7  1  0
  7  8  2  0
  8  9  1  0
  9 10  2  0
 10 11  1  0
 11 12  2  0
 12 13  1  0
 13 14  2  0
 13 15  1  0
 15 16  2  0
 16 17  1  0
 17 18  2  0
 17 19  1  0
 19 20  1  0
 19 21  1  0
 21 22  2  0
 21 23  1  0
 23 15  1  0
 12 24  1  0
 24 25  2  0
 25  9  1  0
  8 26  1  0
 26 27  2  0
 27  5  1  0
M  END
> <Smiles>
COC(=O)c1ccc(-c2ccc(C(=O)c3cc(=O)n(O)c(=O)[nH]3)cc2)cc1

> <IC50_uM>
0.015

> <pIC50>
7.823908741

> <Activity>
1

$$$$

  SciTegic10102310092D

 22 23  0  0  0  0            999 V2000
    2.5981   -1.5000    0.0000 C   0  0
    1.2990   -0.7500    0.0000 C   0  0
    1.2990    0.7500    0.0000 C   0  0
    2.5972    1.5031    0.0000 C   0  0  3  0  0  0
    3.8976    0.7554    0.0000 C   0  0
    2.5951    3.0039    0.0000 C   0  0
    3.8915    3.7585    0.0000 C   0  0
    5.1932    3.0131    0.0000 F   0  0
    3.8863    5.2585    0.0000 C   0  0
    2.5847    6.0040    0.0000 C   0  0
    1.2883    5.2495    0.0000 C   0  0
    1.2934    3.7495    0.0000 C   0  0
   -0.0030    2.9951    0.0000 Cl  0  0
    0.0000    1.5000    0.0000 N   0  0
   -1.2990    0.7500    0.0000 C   0  0
   -2.6003    1.4977    0.0000 S   0  0
   -3.8990    0.7455    0.0000 C   0  0
   -5.1996    1.4928    0.0000 C   0  0
   -3.8964   -0.7545    0.0000 C   0  0
   -1.2990   -0.7500    0.0000 N   0  0
    0.0000   -1.5000    0.0000 C   0  0
    0.0000   -3.0000    0.0000 O   0  0
  1  2  1  0
  2  3  2  0
  3  4  1  0
  4  5  1  4
  4  6  1  0
  6  7  2  0
  7  8  1  0
  7  9  1  0
  9 10  2  0
 10 11  1  0
 11 12  2  0
 12  6  1  0
 12 13  1  0
  3 14  1  0
 14 15  2  0
 15 16  1  0
 16 17  1  0
 17 18  1  0
 17 19  1  0
 15 20  1  0
 20 21  1  0
 21  2  1  0
 21 22  2  0
M  END
> <Smiles>
Cc1c(C(C)c2c(F)cccc2Cl)nc(SC(C)C)[nH]c1=O

> <IC50_uM>
0.015

> <pIC50>
7.823908741

> <Activity>
1

$$$$

  SciTegic10102310092D

 40 42  0  0  0  0            999 V2000
    6.4833   -9.7648    0.0000 C   0  0
    6.4855   -8.2648    0.0000 O   0  0
    5.1873   -7.5117    0.0000 C   0  0
    5.1894   -6.0109    0.0000 C   0  0
    3.8912   -5.2578    0.0000 O   0  0
    3.8933   -3.7570    0.0000 C   0  0
    2.5951   -3.0039    0.0000 C   0  0
    2.5973   -1.5031    0.0000 O   0  0
    1.2990   -0.7500    0.0000 C   0  0
    1.2990    0.7500    0.0000 C   0  0
    0.0000    1.5000    0.0000 C   0  0
   -1.2990    0.7500    0.0000 C   0  0
   -2.5973    1.5031    0.0000 N   0  0
   -2.5951    3.0039    0.0000 C   0  0
   -1.2948    3.7516    0.0000 O   0  0
   -3.8933    3.7570    0.0000 C   0  0
   -3.8912    5.2578    0.0000 O   0  0
   -5.1894    6.0109    0.0000 C   0  0
   -6.4886    5.2609    0.0000 C   0  0
   -7.7876    6.0110    0.0000 C   0  0
   -7.7876    7.5110    0.0000 C   0  0
   -9.0866    8.2610    0.0000 Cl  0  0
   -6.4885    8.2609    0.0000 C   0  0
   -5.1895    7.5109    0.0000 C   0  0
   -3.8913    8.2640    0.0000 C   0  0
   -2.5909    7.5163    0.0000 O   0  0
   -3.8934    9.7648    0.0000 C   0  0
   -2.5970   10.5194    0.0000 C   0  0
   -2.6022   12.0194    0.0000 C   0  0
   -1.3058   12.7739    0.0000 F   0  0
   -3.9039   12.7649    0.0000 C   0  0
   -5.2003   12.0104    0.0000 C   0  0
   -6.5026   12.7563    0.0000 C   0  0
   -6.5088   14.2563    0.0000 F   0  0
   -7.7988   12.0014    0.0000 F   0  0
   -7.8046   13.5012    0.0000 F   0  0
   -5.1951   10.5104    0.0000 C   0  0
   -1.2990   -0.7500    0.0000 C   0  0
   -2.5981   -1.5000    0.0000 C   0  0
    0.0000   -1.5000    0.0000 C   0  0
  1  2  1  0
  2  3  1  0
  3  4  1  0
  4  5  1  0
  5  6  1  0
  6  7  1  0
  7  8  1  0
  8  9  1  0
  9 10  2  0
 10 11  1  0
 11 12  2  0
 12 13  1  0
 13 14  1  0
 14 15  2  0
 14 16  1  0
 16 17  1  0
 17 18  1  0
 18 19  2  0
 19 20  1  0
 20 21  2  0
 21 22  1  0
 21 23  1  0
 23 24  2  0
 24 18  1  0
 24 25  1  0
 25 26  2  0
 25 27  1  0
 27 28  2  0
 28 29  1  0
 29 30  1  0
 29 31  2  0
 31 32  1  0
 32 33  1  0
 33 34  1  0
 33 35  1  0
 33 36  1  0
 32 37  2  0
 37 27  1  0
 12 38  1  0
 38 39  1  0
 38 40  2  0
 40  9  1  0
M  END
> <Smiles>
COCCOCCOc1ccc(NC(=O)COc2ccc(Cl)cc2C(=O)c2cc(F)cc(C(F)(F)F)c2)c(C)c1

> <IC50_uM>
0.01585

> <pIC50>
7.799970733

> <Activity>
1

$$$$

  SciTegic10102310092D

 24 26  0  0  0  0            999 V2000
    3.8978   -2.2504    0.0000 N   0  0
    2.5988   -1.5004    0.0000 C   0  0
    1.2990   -0.7500    0.0000 C   0  0
    1.2990    0.7500    0.0000 C   0  0
    0.0000    1.5000    0.0000 C   0  0
   -1.2990    0.7500    0.0000 C   0  0
   -2.6003    1.4977    0.0000 N   0  0
   -3.8990    0.7455    0.0000 C   0  0
   -5.2007    1.4909    0.0000 N   0  0
   -6.4972    0.7364    0.0000 C   0  0
   -6.4920   -0.7636    0.0000 C   0  0
   -5.1903   -1.5091    0.0000 C   0  0
   -5.1821   -3.0099    0.0000 N   0  0
   -3.8787   -3.7540    0.0000 C   0  0
   -3.8704   -5.2548    0.0000 C   0  0
   -2.5687   -6.0003    0.0000 C   0  0
   -2.5635   -7.5003    0.0000 C   0  0
   -3.8599   -8.2548    0.0000 C   0  0
   -5.1616   -7.5094    0.0000 C   0  0
   -6.4580   -8.2639    0.0000 F   0  0
   -5.1668   -6.0094    0.0000 C   0  0
   -3.8939   -0.7546    0.0000 N   0  0
   -1.2990   -0.7500    0.0000 C   0  0
    0.0000   -1.5000    0.0000 C   0  0
  1  2  3  0
  2  3  1  0
  3  4  2  0
  4  5  1  0
  5  6  2  0
  6  7  1  0
  7  8  1  0
  8  9  2  0
  9 10  1  0
 10 11  2  0
 11 12  1  0
 12 13  1  0
 13 14  1  0
 14 15  1  0
 15 16  2  0
 16 17  1  0
 17 18  2  0
 18 19  1  0
 19 20  1  0
 19 21  2  0
 21 15  1  0
 12 22  2  0
 22  8  1  0
  6 23  1  0
 23 24  2  0
 24  3  1  0
M  END
> <Smiles>
N#Cc1ccc(Nc2nccc(NCc3cccc(F)c3)n2)cc1

> <IC50_uM>
0.016

> <pIC50>
7.795880017

> <Activity>
1

$$$$

  SciTegic10102310092D

 22 24  0  0  0  0            999 V2000
    2.5981   -1.5000    0.0000 O   0  0
    1.2990   -0.7500    0.0000 C   0  0
    1.2990    0.7500    0.0000 C   0  0
    0.0000    1.5000    0.0000 C   0  0
   -0.0031    3.0008    0.0000 C   0  0
   -1.3039    3.7494    0.0000 C   0  0
   -1.3092    5.2494    0.0000 C   0  0
   -2.6108    5.9949    0.0000 C   0  0
   -3.9073    5.2404    0.0000 C   0  0
   -3.9021    3.7404    0.0000 C   0  0
   -5.1992    2.9855    0.0000 C   0  0
   -6.5021    3.7289    0.0000 C   0  0
   -7.7973    2.9724    0.0000 C   0  0
   -7.7897    1.4724    0.0000 C   0  0
   -6.4869    0.7290    0.0000 C   0  0
   -5.1917    1.4855    0.0000 C   0  0
   -2.6005    2.9949    0.0000 C   0  0
   -1.2990    0.7500    0.0000 N   0  0
   -1.2990   -0.7500    0.0000 C   0  0
   -2.5981   -1.5000    0.0000 O   0  0
    0.0000   -1.5000    0.0000 N   0  0
    0.0000   -3.0000    0.0000 O   0  0
  1  2  2  0
  2  3  1  0
  3  4  2  0
  4  5  1  0
  5  6  1  0
  6  7  2  0
  7  8  1  0
  8  9  2  0
  9 10  1  0
 10 11  1  0
 11 12  2  0
 12 13  1  0
 13 14  2  0
 14 15  1  0
 15 16  2  0
 16 11  1  0
 10 17  2  0
 17  6  1  0
  4 18  1  0
 18 19  1  0
 19 20  2  0
 19 21  1  0
 21  2  1  0
 21 22  1  0
M  END
> <Smiles>
O=c1cc(Cc2cccc(-c3ccccc3)c2)[nH]c(=O)n1O

> <IC50_uM>
0.016

> <pIC50>
7.795880017

> <Activity>
1

$$$$

  SciTegic10102310092D

 29 31  0  0  0  0            999 V2000
    3.1676   -7.5606    0.0000 C   0  0
    1.7006   -7.2475    0.0000 C   0  0
    0.6960   -8.3614    0.0000 C   0  0
   -0.7710   -8.0483    0.0000 C   0  0
   -1.7756   -9.1622    0.0000 C   0  0
   -1.2333   -6.6213    0.0000 C   0  0
   -0.2287   -5.5075    0.0000 C   0  0
   -0.6913   -4.0797    0.0000 S   0  0
   -2.1584   -3.7671    0.0000 O   0  0
   -1.6957   -5.1937    0.0000 O   0  0
    0.3114   -2.9665    0.0000 C   0  0
    1.8032   -3.1233    0.0000 C   0  0
    2.5551   -4.4192    0.0000 C   0  0
    1.8074   -5.7196    0.0000 O   0  0
    4.0559   -4.4171    0.0000 N   0  0
    4.8090   -5.7153    0.0000 C   0  0  3  0  0  0
    4.0613   -7.0156    0.0000 C   0  0
    6.3098   -5.7131    0.0000 C   0  0
    7.0575   -4.4127    0.0000 N   0  0
    7.0625   -7.0106    0.0000 O   0  0
    2.4133   -1.7530    0.0000 N   0  0
    1.2990   -0.7500    0.0000 C   0  0
    1.2990    0.7500    0.0000 C   0  0
    0.0000    1.5000    0.0000 C   0  0
   -1.2990    0.7500    0.0000 C   0  0
   -2.5981    1.5000    0.0000 Br  0  0
   -1.2990   -0.7500    0.0000 C   0  0
    0.0000   -1.5000    0.0000 C   0  0
    1.2383   -5.8206    0.0000 C   0  0
  1  2  1  0
  2  3  2  0
  3  4  1  0
  4  5  1  0
  4  6  2  0
  6  7  1  0
  7  8  1  0
  8  9  2  0
  8 10  2  0
  8 11  1  0
 11 12  2  0
 12 13  1  0
 13 14  2  0
 13 15  1  0
 15 16  1  0
 16 17  1  4
 16 18  1  0
 18 19  1  0
 18 20  2  0
 12 21  1  0
 21 22  1  0
 22 23  2  0
 23 24  1  0
 24 25  2  0
 25 26  1  0
 25 27  1  0
 27 28  2  0
 28 11  1  0
 28 22  1  0
  7 29  2  0
 29  2  1  0
M  END
> <Smiles>
Cc1cc(C)cc(S(=O)(=O)c2c(C(=O)NC(C)C(N)=O)[nH]c3ccc(Br)cc23)c1

> <IC50_uM>
0.016

> <pIC50>
7.795880017

> <Activity>
1

$$$$

  SciTegic10102310092D

 24 25  0  0  0  0            999 V2000
    3.8983   -0.7566    0.0000 C   0  0
    2.5973   -1.5031    0.0000 C   0  0
    1.2990   -0.7500    0.0000 C   0  0
    1.2990    0.7500    0.0000 C   0  0
    2.5981    1.5000    0.0000 C   0  0
    0.0000    1.5000    0.0000 N   0  0
   -1.2990    0.7500    0.0000 C   0  0
   -2.5981    1.5000    0.0000 O   0  0
   -1.2990   -0.7500    0.0000 C   0  0
   -2.5972   -1.5031    0.0000 N   0  0
   -2.5951   -3.0039    0.0000 C   0  0
   -3.8926   -3.7566    0.0000 C   0  0
   -3.8999   -0.7576    0.0000 C   0  0
   -5.1965   -1.5117    0.0000 C   0  0
    0.0000   -1.5000    0.0000 C   0  0
    0.0031   -3.0008    0.0000 C   0  0
    1.3039   -3.7494    0.0000 C   0  0
    1.3092   -5.2494    0.0000 C   0  0
    2.6108   -5.9949    0.0000 C   0  0
    2.6160   -7.4949    0.0000 C   0  0
    3.9073   -5.2404    0.0000 C   0  0
    3.9021   -3.7404    0.0000 C   0  0
    5.1985   -2.9859    0.0000 C   0  0
    2.6004   -2.9949    0.0000 C   0  0
  1  2  1  0
  2  3  1  0
  3  4  2  0
  4  5  1  0
  4  6  1  0
  6  7  1  0
  7  8  2  0
  7  9  1  0
  9 10  1  0
 10 11  1  0
 11 12  1  0
 10 13  1  0
 13 14  1  0
  9 15  2  0
 15  3  1  0
 15 16  1  0
 16 17  1  0
 17 18  2  0
 18 19  1  0
 19 20  1  0
 19 21  2  0
 21 22  1  0
 22 23  1  0
 22 24  2  0
 24 17  1  0
M  END
> <Smiles>
CCc1c(C)[nH]c(=O)c(N(CC)CC)c1Cc1cc(C)cc(C)c1

> <IC50_uM>
0.016

> <pIC50>
7.795880017

> <Activity>
1

$$$$

  SciTegic10102310092D

 23 25  0  0  0  0            999 V2000
    2.5981   -1.5000    0.0000 O   0  0
    1.2990   -0.7500    0.0000 C   0  0
    1.2990    0.7500    0.0000 C   0  0
    0.0000    1.5000    0.0000 C   0  0
   -0.0031    3.0008    0.0000 C   0  0
   -1.3039    3.7494    0.0000 C   0  0
   -1.3092    5.2494    0.0000 C   0  0
   -2.6108    5.9949    0.0000 C   0  0
   -3.9073    5.2404    0.0000 C   0  0
   -5.2096    5.9863    0.0000 C   0  0
   -5.2172    7.4863    0.0000 C   0  0
   -6.5200    8.2297    0.0000 C   0  0
   -7.8153    7.4732    0.0000 C   0  0
   -7.8077    5.9732    0.0000 C   0  0
   -9.1029    5.2167    0.0000 Cl  0  0
   -6.5049    5.2298    0.0000 C   0  0
   -3.9021    3.7404    0.0000 C   0  0
   -2.6005    2.9949    0.0000 C   0  0
   -1.2990    0.7500    0.0000 N   0  0
   -1.2990   -0.7500    0.0000 C   0  0
   -2.5981   -1.5000    0.0000 O   0  0
    0.0000   -1.5000    0.0000 N   0  0
    0.0000   -3.0000    0.0000 O   0  0
  1  2  2  0
  2  3  1  0
  3  4  2  0
  4  5  1  0
  5  6  1  0
  6  7  2  0
  7  8  1  0
  8  9  2  0
  9 10  1  0
 10 11  2  0
 11 12  1  0
 12 13  2  0
 13 14  1  0
 14 15  1  0
 14 16  2  0
 16 10  1  0
  9 17  1  0
 17 18  2  0
 18  6  1  0
  4 19  1  0
 19 20  1  0
 20 21  2  0
 20 22  1  0
 22  2  1  0
 22 23  1  0
M  END
> <Smiles>
O=c1cc(Cc2ccc(-c3cccc(Cl)c3)cc2)[nH]c(=O)n1O

> <IC50_uM>
0.016

> <pIC50>
7.795880017

> <Activity>
1

$$$$

  SciTegic10102310092D

 27 30  0  0  0  0            999 V2000
   -5.7094   -9.6564    0.0000 C   0  0
   -6.1704   -8.2290    0.0000 C   0  0
   -7.6370   -7.9146    0.0000 C   0  0
   -8.0981   -6.4872    0.0000 C   0  0
   -9.5656   -6.1726    0.0000 C   0  0
  -11.0322   -5.8582    0.0000 N   0  0
   -7.0924   -5.3742    0.0000 C   0  0
   -5.6258   -5.6886    0.0000 C   0  0
   -5.1646   -7.1161    0.0000 C   0  0
   -3.6967   -7.4283    0.0000 C   0  0
   -3.2334   -8.8550    0.0000 C   0  0
   -1.7662   -9.1671    0.0000 C   0  0
   -0.7624   -8.0525    0.0000 N   0  0
   -1.2256   -6.6258    0.0000 C   0  0
   -0.2234   -5.5086    0.0000 N   0  0
   -0.6890   -4.0818    0.0000 C   0  0
    0.3114   -2.9665    0.0000 C   0  0
    1.8032   -3.1233    0.0000 N   0  0
    2.4133   -1.7530    0.0000 N   0  0
    1.2990   -0.7500    0.0000 C   0  0
    1.2990    0.7500    0.0000 N   0  0
    0.0000    1.5000    0.0000 C   0  0
    0.0000    3.0000    0.0000 N   0  0
   -1.2990    0.7500    0.0000 C   0  0
   -1.2990   -0.7500    0.0000 C   0  0
    0.0000   -1.5000    0.0000 C   0  0
   -2.6928   -6.3138    0.0000 C   0  0
  1  2  1  0
  2  3  2  0
  3  4  1  0
  4  5  1  0
  5  6  3  0
  4  7  2  0
  7  8  1  0
  8  9  2  0
  9  2  1  0
  9 10  1  0
 10 11  2  0
 11 12  1  0
 12 13  2  0
 13 14  1  0
 14 15  1  0
 15 16  1  0
 16 17  1  0
 17 18  2  0
 18 19  1  0
 19 20  1  0
 20 21  2  0
 21 22  1  0
 22 23  1  0
 22 24  2  0
 24 25  1  0
 25 26  2  0
 26 17  1  0
 26 20  1  0
 14 27  2  0
 27 10  1  0
M  END
> <Smiles>
Cc1cc(C#N)ccc1-c1ccnc(NCc2n[nH]c3nc(N)ccc23)c1

> <IC50_uM>
0.016

> <pIC50>
7.795880017

> <Activity>
1

$$$$

  SciTegic10102310092D

 27 29  0  0  0  0            999 V2000
    3.8978   -2.2504    0.0000 N   0  0
    2.5988   -1.5004    0.0000 C   0  0
    1.2990   -0.7500    0.0000 C   0  0
    1.2990    0.7500    0.0000 C   0  0
    0.0000    1.5000    0.0000 C   0  0
    0.0000    3.0000    0.0000 Cl  0  0
   -1.2990    0.7500    0.0000 C   0  0
   -1.2990   -0.7500    0.0000 C   0  0
   -2.5972   -1.5031    0.0000 O   0  0
   -2.5951   -3.0039    0.0000 C   0  0
   -3.8915   -3.7585    0.0000 C   0  0
   -5.1954   -3.0153    0.0000 C   0  0
   -6.4915   -3.7721    0.0000 C   0  0
   -7.7954   -3.0289    0.0000 O   0  0
   -9.0914   -3.7857    0.0000 C   0  0
  -10.3957   -3.0449    0.0000 C   0  0
  -11.6895   -3.8039    0.0000 C   0  0
  -11.6791   -5.3039    0.0000 C   0  0
  -10.3748   -6.0448    0.0000 N   0  0
   -9.0811   -5.2858    0.0000 C   0  0
   -3.8863   -5.2585    0.0000 C   0  0
   -2.5847   -6.0040    0.0000 N   0  0
   -1.2883   -5.2495    0.0000 C   0  0
    0.0134   -5.9950    0.0000 O   0  0
   -1.2935   -3.7495    0.0000 C   0  0
    0.0030   -2.9951    0.0000 Br  0  0
    0.0000   -1.5000    0.0000 C   0  0
  1  2  3  0
  2  3  1  0
  3  4  2  0
  4  5  1  0
  5  6  1  0
  5  7  2  0
  7  8  1  0
  8  9  1  0
  9 10  1  0
 10 11  1  0
 11 12  1  0
 12 13  1  0
 13 14  1  0
 14 15  1  0
 15 16  2  0
 16 17  1  0
 17 18  2  0
 18 19  1  0
 19 20  2  0
 20 15  1  0
 11 21  2  0
 21 22  1  0
 22 23  1  0
 23 24  2  0
 23 25  1  0
 25 10  2  0
 25 26  1  0
  8 27  2  0
 27  3  1  0
M  END
> <Smiles>
N#Cc1cc(Cl)cc(Oc2c(CCOc3cccnc3)c[nH]c(=O)c2Br)c1

> <IC50_uM>
0.016

> <pIC50>
7.795880017

> <Activity>
1

$$$$

  SciTegic10102310092D

 24 25  0  0  0  0            999 V2000
    3.8983   -0.7566    0.0000 C   0  0
    2.5973   -1.5031    0.0000 C   0  0
    1.2990   -0.7500    0.0000 C   0  0
    1.2990    0.7500    0.0000 C   0  0
    2.5981    1.5000    0.0000 C   0  0
    0.0000    1.5000    0.0000 N   0  0
   -1.2990    0.7500    0.0000 C   0  0
   -2.5981    1.5000    0.0000 O   0  0
   -1.2990   -0.7500    0.0000 C   0  0
   -2.5972   -1.5031    0.0000 N   0  0
   -3.8976   -0.7554    0.0000 C   0  0
   -2.5951   -3.0039    0.0000 C   0  0
   -3.8933   -3.7570    0.0000 C   0  0
   -3.8912   -5.2578    0.0000 C   0  0
   -3.8890   -6.7578    0.0000 N   0  0
    0.0000   -1.5000    0.0000 C   0  0
    0.0031   -3.0008    0.0000 C   0  0
    1.3039   -3.7494    0.0000 C   0  0
    1.3092   -5.2494    0.0000 C   0  0
    2.6108   -5.9949    0.0000 C   0  0
    3.9073   -5.2404    0.0000 C   0  0
    3.9021   -3.7404    0.0000 C   0  0
    5.1985   -2.9859    0.0000 C   0  0
    2.6004   -2.9949    0.0000 C   0  0
  1  2  1  0
  2  3  1  0
  3  4  2  0
  4  5  1  0
  4  6  1  0
  6  7  1  0
  7  8  2  0
  7  9  1  0
  9 10  1  0
 10 11  1  0
 10 12  1  0
 12 13  1  0
 13 14  1  0
 14 15  3  0
  9 16  2  0
 16  3  1  0
 16 17  1  0
 17 18  1  0
 18 19  2  0
 19 20  1  0
 20 21  2  0
 21 22  1  0
 22 23  1  0
 22 24  2  0
 24 18  1  0
M  END
> <Smiles>
CCc1c(C)[nH]c(=O)c(N(C)CCC#N)c1Cc1cccc(C)c1

> <IC50_uM>
0.016

> <pIC50>
7.795880017

> <Activity>
1

$$$$

  SciTegic10102310092D

 22 23  0  0  0  0            999 V2000
    3.8926   -3.7566    0.0000 C   0  0
    2.5951   -3.0039    0.0000 C   0  0
    2.5973   -1.5031    0.0000 N   0  0
    1.2990   -0.7500    0.0000 C   0  0
    1.2990    0.7500    0.0000 C   0  0
    2.5972    1.5031    0.0000 C   0  0
    2.5951    3.0039    0.0000 C   0  0
    3.8915    3.7585    0.0000 C   0  0
    3.8863    5.2585    0.0000 C   0  0
    5.1827    6.0130    0.0000 C   0  0
    2.5847    6.0040    0.0000 C   0  0
    1.2883    5.2495    0.0000 C   0  0
   -0.0134    5.9950    0.0000 C   0  0
    1.2934    3.7495    0.0000 C   0  0
    0.0000    1.5000    0.0000 C   0  0
   -0.0031    3.0008    0.0000 C   0  0
   -1.3032    3.7490    0.0000 C   0  0
   -1.2990    0.7500    0.0000 C   0  0
   -2.5981    1.5000    0.0000 C   0  0
   -1.2990   -0.7500    0.0000 N   0  0
    0.0000   -1.5000    0.0000 C   0  0
    0.0000   -3.0000    0.0000 O   0  0
  1  2  1  0
  2  3  1  0
  3  4  1  0
  4  5  2  0
  5  6  1  0
  6  7  1  0
  7  8  2  0
  8  9  1  0
  9 10  1  0
  9 11  2  0
 11 12  1  0
 12 13  1  0
 12 14  2  0
 14  7  1  0
  5 15  1  0
 15 16  1  0
 16 17  1  0
 15 18  2  0
 18 19  1  0
 18 20  1  0
 20 21  1  0
 21  4  1  0
 21 22  2  0
M  END
> <Smiles>
CCNc1c(Cc2cc(C)cc(C)c2)c(CC)c(C)[nH]c1=O

> <IC50_uM>
0.016

> <pIC50>
7.795880017

> <Activity>
1

$$$$

  SciTegic10102310092D

 24 25  0  0  0  0            999 V2000
    3.8912   -5.2570    0.0000 C   0  0
    3.8933   -3.7570    0.0000 C   0  0
    2.5951   -3.0039    0.0000 C   0  0
    2.5973   -1.5031    0.0000 N   0  0
    3.8976   -0.7553    0.0000 C   0  0
    1.2990   -0.7500    0.0000 C   0  0
    1.2990    0.7500    0.0000 C   0  0
    2.5972    1.5031    0.0000 C   0  0
    2.5951    3.0039    0.0000 C   0  0
    3.8915    3.7585    0.0000 C   0  0
    3.8863    5.2585    0.0000 C   0  0
    5.1827    6.0130    0.0000 C   0  0
    2.5847    6.0040    0.0000 C   0  0
    1.2883    5.2495    0.0000 C   0  0
   -0.0134    5.9950    0.0000 C   0  0
    1.2934    3.7495    0.0000 C   0  0
    0.0000    1.5000    0.0000 C   0  0
   -0.0031    3.0008    0.0000 C   0  0
   -1.3032    3.7490    0.0000 C   0  0
   -1.2990    0.7500    0.0000 C   0  0
   -2.5981    1.5000    0.0000 C   0  0
   -1.2990   -0.7500    0.0000 N   0  0
    0.0000   -1.5000    0.0000 C   0  0
    0.0000   -3.0000    0.0000 O   0  0
  1  2  1  0
  2  3  1  0
  3  4  1  0
  4  5  1  0
  4  6  1  0
  6  7  2  0
  7  8  1  0
  8  9  1  0
  9 10  2  0
 10 11  1  0
 11 12  1  0
 11 13  2  0
 13 14  1  0
 14 15  1  0
 14 16  2  0
 16  9  1  0
  7 17  1  0
 17 18  1  0
 18 19  1  0
 17 20  2  0
 20 21  1  0
 20 22  1  0
 22 23  1  0
 23  6  1  0
 23 24  2  0
M  END
> <Smiles>
CCCN(C)c1c(Cc2cc(C)cc(C)c2)c(CC)c(C)[nH]c1=O

> <IC50_uM>
0.016

> <pIC50>
7.795880017

> <Activity>
1

$$$$

  SciTegic10102310092D

 29 32  0  0  0  0            999 V2000
    2.5981   -1.5000    0.0000 C   0  0
    1.2990   -0.7500    0.0000 C   0  0
    1.2990    0.7500    0.0000 C   0  0
    0.0000    1.5000    0.0000 C   0  0
    0.0000    3.0008    0.0000 C   0  0
    0.0000    4.5008    0.0000 N   0  0
   -1.2990    0.7500    0.0000 C   0  0
   -1.2990   -0.7500    0.0000 C   0  0
    0.0000   -1.5000    0.0000 C   0  0
    0.0000   -3.0008    0.0000 C   0  0
   -1.2978   -3.7529    0.0000 C   0  0
   -1.2955   -5.2529    0.0000 C   0  0
    0.0048   -6.0009    0.0000 N   0  0
    1.3026   -5.2488    0.0000 C   0  0
    2.6051   -5.9945    0.0000 N   0  0
    3.9026   -5.2401    0.0000 C   0  0
    5.2051   -5.9858    0.0000 C   0  0
    5.3453   -7.4665    0.0000 N   0  0
    6.8130   -7.7760    0.0000 N   0  0
    7.5609   -6.4758    0.0000 C   0  0
    9.0532   -6.3165    0.0000 C   0  0
   10.0216   -7.4555    0.0000 C   0  0
   11.4970   -7.1845    0.0000 C   0  0
   12.0000   -5.7714    0.0000 C   0  0
   11.0277   -4.6292    0.0000 C   0  0
    9.5523   -4.9001    0.0000 N   0  0
    6.5555   -5.3626    0.0000 C   0  0
    6.8563   -3.8931    0.0000 Cl  0  0
    1.3002   -3.7488    0.0000 C   0  0
  1  2  1  0
  2  3  2  0
  3  4  1  0
  4  5  1  0
  5  6  3  0
  4  7  2  0
  7  8  1  0
  8  9  2  0
  9  2  1  0
  9 10  1  0
 10 11  2  0
 11 12  1  0
 12 13  2  0
 13 14  1  0
 14 15  1  0
 15 16  1  0
 16 17  1  0
 17 18  2  0
 18 19  1  0
 19 20  1  0
 20 21  1  0
 21 22  2  0
 22 23  1  0
 23 24  2  0
 24 25  1  0
 25 26  2  0
 26 21  1  0
 20 27  2  0
 27 17  1  0
 27 28  1  0
 14 29  2  0
 29 10  1  0
M  END
> <Smiles>
Cc1cc(C#N)ccc1-c1ccnc(NCc2n[nH]c(-c3ccccn3)c2Cl)c1

> <IC50_uM>
0.016

> <pIC50>
7.795880017

> <Activity>
1

$$$$

  SciTegic10102310092D

 26 28  0  0  0  0            999 V2000
    3.8978   -2.2504    0.0000 N   0  0
    2.5988   -1.5004    0.0000 C   0  0
    1.2990   -0.7500    0.0000 C   0  0
    1.2990    0.7500    0.0000 C   0  0
    0.0000    1.5000    0.0000 C   0  0
    0.0000    3.0000    0.0000 Cl  0  0
   -1.2990    0.7500    0.0000 C   0  0
   -1.2990   -0.7500    0.0000 C   0  0
   -2.5972   -1.5031    0.0000 O   0  0
   -2.5951   -3.0039    0.0000 C   0  0
   -1.2935   -3.7495    0.0000 C   0  0
   -1.2883   -5.2495    0.0000 C   0  0
    0.0125   -5.9981    0.0000 C   0  0
    0.0156   -7.4989    0.0000 C   0  0
    1.3164   -8.2475    0.0000 C   0  0
    1.3216   -9.7475    0.0000 C   0  0
    2.6232  -10.4931    0.0000 C   0  0
    3.9197   -9.7386    0.0000 C   0  0
    3.9145   -8.2386    0.0000 N   0  0
    2.6129   -7.4931    0.0000 C   0  0
   -2.5847   -6.0040    0.0000 N   0  0
   -3.8863   -5.2585    0.0000 C   0  0
   -5.1828   -6.0130    0.0000 O   0  0
   -3.8915   -3.7585    0.0000 C   0  0
   -5.1932   -3.0130    0.0000 Cl  0  0
    0.0000   -1.5000    0.0000 C   0  0
  1  2  3  0
  2  3  1  0
  3  4  2  0
  4  5  1  0
  5  6  1  0
  5  7  2  0
  7  8  1  0
  8  9  1  0
  9 10  1  0
 10 11  1  0
 11 12  2  0
 12 13  1  0
 13 14  1  0
 14 15  1  0
 15 16  2  0
 16 17  1  0
 17 18  2  0
 18 19  1  0
 19 20  2  0
 20 15  1  0
 12 21  1  0
 21 22  1  0
 22 23  2  0
 22 24  1  0
 24 10  2  0
 24 25  1  0
  8 26  2  0
 26  3  1  0
M  END
> <Smiles>
N#Cc1cc(Cl)cc(Oc2cc(CCc3cccnc3)[nH]c(=O)c2Cl)c1

> <IC50_uM>
0.016

> <pIC50>
7.795880017

> <Activity>
1

$$$$

  SciTegic10102310092D

 24 26  0  0  0  0            999 V2000
    3.8978   -2.2504    0.0000 N   0  0
    2.5988   -1.5004    0.0000 C   0  0
    1.2990   -0.7500    0.0000 C   0  0
    1.2990    0.7500    0.0000 C   0  0
    0.0000    1.5000    0.0000 C   0  0
   -1.2990    0.7500    0.0000 C   0  0
   -2.6003    1.4977    0.0000 N   0  0
   -3.8990    0.7455    0.0000 C   0  0
   -5.2007    1.4909    0.0000 N   0  0
   -6.4972    0.7364    0.0000 C   0  0
   -6.4920   -0.7636    0.0000 C   0  0
   -5.1903   -1.5091    0.0000 C   0  0
   -5.1821   -3.0099    0.0000 N   0  0
   -3.8787   -3.7540    0.0000 C   0  0
   -3.8704   -5.2548    0.0000 C   0  0
   -5.1668   -6.0094    0.0000 C   0  0
   -5.1616   -7.5094    0.0000 C   0  0
   -3.8599   -8.2548    0.0000 C   0  0
   -2.5635   -7.5003    0.0000 C   0  0
   -2.5687   -6.0003    0.0000 C   0  0
   -1.2723   -5.2458    0.0000 F   0  0
   -3.8939   -0.7546    0.0000 N   0  0
   -1.2990   -0.7500    0.0000 C   0  0
    0.0000   -1.5000    0.0000 C   0  0
  1  2  3  0
  2  3  1  0
  3  4  2  0
  4  5  1  0
  5  6  2  0
  6  7  1  0
  7  8  1  0
  8  9  2  0
  9 10  1  0
 10 11  2  0
 11 12  1  0
 12 13  1  0
 13 14  1  0
 14 15  1  0
 15 16  2  0
 16 17  1  0
 17 18  2  0
 18 19  1  0
 19 20  2  0
 20 15  1  0
 20 21  1  0
 12 22  2  0
 22  8  1  0
  6 23  1  0
 23 24  2  0
 24  3  1  0
M  END
> <Smiles>
N#Cc1ccc(Nc2nccc(NCc3ccccc3F)n2)cc1

> <IC50_uM>
0.016

> <pIC50>
7.795880017

> <Activity>
1

$$$$

  SciTegic10102310092D

 22 24  0  0  0  0            999 V2000
    2.5981   -1.5000    0.0000 O   0  0
    1.2990   -0.7500    0.0000 C   0  0
    1.2990    0.7500    0.0000 C   0  0
    0.0000    1.5000    0.0000 C   0  0
   -0.0031    3.0008    0.0000 C   0  0
   -1.3039    3.7494    0.0000 C   0  0
   -1.3092    5.2494    0.0000 C   0  0
   -2.6108    5.9949    0.0000 C   0  0
   -3.9073    5.2404    0.0000 C   0  0
   -5.2096    5.9863    0.0000 C   0  0
   -5.2172    7.4863    0.0000 C   0  0
   -6.5200    8.2297    0.0000 C   0  0
   -7.8153    7.4732    0.0000 C   0  0
   -7.8077    5.9732    0.0000 C   0  0
   -6.5049    5.2298    0.0000 C   0  0
   -3.9021    3.7404    0.0000 C   0  0
   -2.6005    2.9949    0.0000 C   0  0
   -1.2990    0.7500    0.0000 N   0  0
   -1.2990   -0.7500    0.0000 C   0  0
   -2.5981   -1.5000    0.0000 O   0  0
    0.0000   -1.5000    0.0000 N   0  0
    0.0000   -3.0000    0.0000 O   0  0
  1  2  2  0
  2  3  1  0
  3  4  2  0
  4  5  1  0
  5  6  1  0
  6  7  2  0
  7  8  1  0
  8  9  2  0
  9 10  1  0
 10 11  2  0
 11 12  1  0
 12 13  2  0
 13 14  1  0
 14 15  2  0
 15 10  1  0
  9 16  1  0
 16 17  2  0
 17  6  1  0
  4 18  1  0
 18 19  1  0
 19 20  2  0
 19 21  1  0
 21  2  1  0
 21 22  1  0
M  END
> <Smiles>
O=c1cc(Cc2ccc(-c3ccccc3)cc2)[nH]c(=O)n1O

> <IC50_uM>
0.016

> <pIC50>
7.795880017

> <Activity>
1

$$$$

  SciTegic10102310092D

 29 31  0  0  0  0            999 V2000
    2.5951   -3.0031    0.0000 C   0  0
    2.5973   -1.5031    0.0000 O   0  0
    1.2990   -0.7500    0.0000 C   0  0
    1.2990    0.7500    0.0000 C   0  0
    0.0000    1.5000    0.0000 C   0  0
   -1.2990    0.7500    0.0000 C   0  0
   -2.6003    1.4977    0.0000 C   0  0
   -3.8990    0.7455    0.0000 N   0  0
   -3.8964   -0.7545    0.0000 C   0  0
   -5.2003    1.4932    0.0000 C   0  0
   -6.4994    0.7432    0.0000 N   0  0
   -7.7985    1.4932    0.0000 C   0  0
   -9.0967    0.7401    0.0000 C   0  0  3  0  0  0
  -10.3970    1.4878    0.0000 C   0  0
   -9.0945   -0.7608    0.0000 C   0  0
  -10.3909   -1.5154    0.0000 C   0  0
  -11.6926   -0.7699    0.0000 Cl  0  0
  -10.3857   -3.0154    0.0000 C   0  0
   -9.0840   -3.7608    0.0000 C   0  0
   -7.7876   -3.0063    0.0000 C   0  0
   -7.7928   -1.5063    0.0000 C   0  0
   -6.4964   -0.7518    0.0000 Cl  0  0
   -7.7985    2.9932    0.0000 C   0  0
   -9.0976    3.7432    0.0000 C   0  0
   -6.4995    3.7432    0.0000 C   0  0
   -6.4995    5.2432    0.0000 O   0  0
   -5.2004    2.9933    0.0000 N   0  0
   -1.2990   -0.7500    0.0000 C   0  0
    0.0000   -1.5000    0.0000 C   0  0
  1  2  1  0
  2  3  1  0
  3  4  2  0
  4  5  1  0
  5  6  2  0
  6  7  1  0
  7  8  1  0
  8  9  1  0
  8 10  1  0
 10 11  2  0
 11 12  1  0
 12 13  1  0
 13 14  1  4
 13 15  1  0
 15 16  2  0
 16 17  1  0
 16 18  1  0
 18 19  2  0
 19 20  1  0
 20 21  2  0
 21 15  1  0
 21 22  1  0
 12 23  2  0
 23 24  1  0
 23 25  1  0
 25 26  2  0
 25 27  1  0
 27 10  1  0
  6 28  1  0
 28 29  2  0
 29  3  1  0
M  END
> <Smiles>
COc1ccc(CN(C)c2nc(C(C)c3c(Cl)cccc3Cl)c(C)c(=O)[nH]2)cc1

> <IC50_uM>
0.017

> <pIC50>
7.769551079

> <Activity>
1

$$$$

  SciTegic10102310092D

 23 25  0  0  0  0            999 V2000
    3.8976   -0.7553    0.0000 O   0  0
    2.5973   -1.5031    0.0000 C   0  0
    1.2990   -0.7500    0.0000 C   0  0
    1.2990    0.7500    0.0000 C   0  0
    0.0000    1.5000    0.0000 C   0  0
   -1.2990    0.7500    0.0000 C   0  0
   -1.2990   -0.7500    0.0000 C   0  0
   -2.5987   -1.5004    0.0000 C   0  0
   -3.8991   -0.7525    0.0000 C   0  0
   -5.1969   -1.5046    0.0000 C   0  0
   -5.1945   -3.0046    0.0000 C   0  0
   -3.8943   -3.7525    0.0000 C   0  0
   -2.5964   -3.0004    0.0000 C   0  0
    0.0000   -1.5000    0.0000 C   0  0
    2.5951   -3.0039    0.0000 C   0  0
    3.8915   -3.7585    0.0000 C   0  0
    3.8864   -5.2585    0.0000 C   0  0
    5.1828   -6.0130    0.0000 O   0  0
    2.5847   -6.0040    0.0000 N   0  0
    2.5795   -7.5040    0.0000 O   0  0
    1.2883   -5.2495    0.0000 C   0  0
   -0.0133   -5.9950    0.0000 O   0  0
    1.2935   -3.7495    0.0000 N   0  0
  1  2  2  0
  2  3  1  0
  3  4  2  0
  4  5  1  0
  5  6  2  0
  6  7  1  0
  7  8  1  0
  8  9  2  0
  9 10  1  0
 10 11  2  0
 11 12  1  0
 12 13  2  0
 13  8  1  0
  7 14  2  0
 14  3  1  0
  2 15  1  0
 15 16  2  0
 16 17  1  0
 17 18  2  0
 17 19  1  0
 19 20  1  0
 19 21  1  0
 21 22  2  0
 21 23  1  0
 23 15  1  0
M  END
> <Smiles>
O=C(c1cccc(-c2ccccc2)c1)c1cc(=O)n(O)c(=O)[nH]1

> <IC50_uM>
0.017

> <pIC50>
7.769551079

> <Activity>
1

$$$$

  SciTegic10102310092D

 29 31  0  0  1  0            999 V2000
    3.1676   -7.5606    0.0000 C   0  0
    1.7006   -7.2475    0.0000 C   0  0
    0.6960   -8.3614    0.0000 C   0  0
   -0.7710   -8.0483    0.0000 C   0  0
   -1.7756   -9.1622    0.0000 C   0  0
   -1.2333   -6.6213    0.0000 C   0  0
   -0.2287   -5.5075    0.0000 C   0  0
   -0.6913   -4.0797    0.0000 S   0  0
   -2.1584   -3.7671    0.0000 O   0  0
   -1.6957   -5.1937    0.0000 O   0  0
    0.3114   -2.9665    0.0000 C   0  0
    1.8032   -3.1233    0.0000 C   0  0
    2.5551   -4.4192    0.0000 C   0  0
    1.8074   -5.7196    0.0000 O   0  0
    4.0559   -4.4171    0.0000 N   0  0
    4.8090   -5.7153    0.0000 C   0  0  2  0  0  0
    4.0613   -7.0156    0.0000 C   0  0
    6.3098   -5.7131    0.0000 C   0  0
    7.0575   -4.4127    0.0000 N   0  0
    7.0625   -7.0106    0.0000 O   0  0
    2.4133   -1.7530    0.0000 N   0  0
    1.2990   -0.7500    0.0000 C   0  0
    1.2990    0.7500    0.0000 C   0  0
    0.0000    1.5000    0.0000 C   0  0
   -1.2990    0.7500    0.0000 C   0  0
   -2.5981    1.5000    0.0000 Cl  0  0
   -1.2990   -0.7500    0.0000 C   0  0
    0.0000   -1.5000    0.0000 C   0  0
    1.2383   -5.8206    0.0000 C   0  0
  1  2  1  0
  2  3  2  0
  3  4  1  0
  4  5  1  0
  4  6  2  0
  6  7  1  0
  7  8  1  0
  8  9  2  0
  8 10  2  0
  8 11  1  0
 11 12  2  0
 12 13  1  0
 13 14  2  0
 13 15  1  0
 15 16  1  0
 16 17  1  1
 16 18  1  0
 18 19  1  0
 18 20  2  0
 12 21  1  0
 21 22  1  0
 22 23  2  0
 23 24  1  0
 24 25  2  0
 25 26  1  0
 25 27  1  0
 27 28  2  0
 28 11  1  0
 28 22  1  0
  7 29  2  0
 29  2  1  0
M  END
> <Smiles>
Cc1cc(C)cc(S(=O)(=O)c2c(C(=O)N[C@H](C)C(N)=O)[nH]c3ccc(Cl)cc23)c1

> <IC50_uM>
0.017

> <pIC50>
7.769551079

> <Activity>
1

$$$$

  SciTegic10102310092D

 20 21  0  0  0  0            999 V2000
    3.8983   -0.7566    0.0000 C   0  0
    2.5973   -1.5031    0.0000 C   0  0
    1.2990   -0.7500    0.0000 C   0  0
    1.2990    0.7500    0.0000 C   0  0
    2.5981    1.5000    0.0000 C   0  0
    0.0000    1.5000    0.0000 N   0  0
   -1.2990    0.7500    0.0000 C   0  0
   -2.5981    1.5000    0.0000 O   0  0
   -1.2990   -0.7500    0.0000 C   0  0
   -2.5981   -1.5000    0.0000 N   0  0
    0.0000   -1.5000    0.0000 C   0  0
    0.0031   -3.0008    0.0000 C   0  0
    1.3039   -3.7494    0.0000 C   0  0
    1.3092   -5.2494    0.0000 C   0  0
    2.6108   -5.9949    0.0000 C   0  0
    2.6160   -7.4949    0.0000 C   0  0
    3.9073   -5.2404    0.0000 C   0  0
    3.9021   -3.7404    0.0000 C   0  0
    5.1985   -2.9859    0.0000 C   0  0
    2.6004   -2.9949    0.0000 C   0  0
  1  2  1  0
  2  3  1  0
  3  4  2  0
  4  5  1  0
  4  6  1  0
  6  7  2  0
  7  8  1  0
  7  9  1  0
  9 10  1  0
  9 11  2  0
 11  3  1  0
 11 12  1  0
 12 13  1  0
 13 14  2  0
 14 15  1  0
 15 16  1  0
 15 17  2  0
 17 18  1  0
 18 19  1  0
 18 20  2  0
 20 13  1  0
M  END
> <Smiles>
CCc1c(C)nc(O)c(N)c1Cc1cc(C)cc(C)c1

> <IC50_uM>
0.017

> <pIC50>
7.769551079

> <Activity>
1

$$$$

  SciTegic10102310092D

 37 41  0  0  0  0            999 V2000
    2.5923    1.5001    0.0000 C   0  0
    3.8939    0.7546    0.0000 C   0  0
    5.1903    1.5091    0.0000 C   0  0
    6.4920    0.7636    0.0000 C   0  0
    7.7891    1.5185    0.0000 C   0  0
    9.0856    2.2729    0.0000 N   0  0
    6.4972   -0.7364    0.0000 C   0  0
    5.2007   -1.4909    0.0000 C   0  0
    5.2059   -2.9909    0.0000 C   0  0
    3.8990   -0.7455    0.0000 C   0  0
    2.6003   -1.4977    0.0000 O   0  0
    1.2990   -0.7500    0.0000 C   0  0
    1.2990    0.7500    0.0000 N   0  0
    0.0000    1.5000    0.0000 C   0  0
   -0.0031    3.0008    0.0000 N   0  0
   -1.3039    3.7494    0.0000 C   0  0
   -1.3092    5.2494    0.0000 C   0  0
   -2.6108    5.9949    0.0000 C   0  0
   -3.9073    5.2404    0.0000 N   0  0
   -5.2112    5.9836    0.0000 C   0  0
   -6.5072    5.2269    0.0000 C   0  0
   -7.8115    5.9678    0.0000 C   0  0
   -9.1053    5.2088    0.0000 C   0  0
   -9.0949    3.7089    0.0000 C   0  0
   -7.7907    2.9679    0.0000 C   0  0
   -7.7773    1.4671    0.0000 C   0  0
   -9.0697    0.7059    0.0000 N   0  0
   -6.4720    0.7280    0.0000 O   0  0
   -6.4969    3.7269    0.0000 C   0  0
   -3.9021    3.7404    0.0000 C   0  0
   -2.6005    2.9949    0.0000 C   0  0
   -1.2990    0.7500    0.0000 N   0  0
   -1.2990   -0.7500    0.0000 C   0  0
   -2.4133   -1.7530    0.0000 S   0  0
   -1.8032   -3.1233    0.0000 C   0  0
   -0.3114   -2.9665    0.0000 C   0  0
    0.0000   -1.5000    0.0000 C   0  0
  1  2  1  0
  2  3  2  0
  3  4  1  0
  4  5  1  0
  5  6  3  0
  4  7  2  0
  7  8  1  0
  8  9  1  0
  8 10  2  0
 10  2  1  0
 10 11  1  0
 11 12  1  0
 12 13  2  0
 13 14  1  0
 14 15  1  0
 15 16  1  0
 16 17  1  0
 17 18  1  0
 18 19  1  0
 19 20  1  0
 20 21  1  0
 21 22  2  0
 22 23  1  0
 23 24  2  0
 24 25  1  0
 25 26  1  0
 26 27  1  0
 26 28  2  0
 25 29  2  0
 29 21  1  0
 19 30  1  0
 30 31  1  0
 31 16  1  0
 14 32  2  0
 32 33  1  0
 33 34  1  0
 34 35  1  0
 35 36  2  0
 36 37  1  0
 37 12  1  0
 37 33  2  0
M  END
> <Smiles>
Cc1cc(C#N)cc(C)c1Oc1nc(NC2CCN(Cc3cccc(C(N)=O)c3)CC2)nc2sccc12

> <IC50_uM>
0.017

> <pIC50>
7.769551079

> <Activity>
1

$$$$

  SciTegic10102310092D

 33 36  0  0  0  0            999 V2000
    3.1676   -7.5606    0.0000 C   0  0
    1.7006   -7.2475    0.0000 C   0  0
    0.6960   -8.3614    0.0000 C   0  0
   -0.7710   -8.0483    0.0000 C   0  0
   -1.7756   -9.1622    0.0000 C   0  0
   -1.2333   -6.6213    0.0000 C   0  0
   -0.2287   -5.5075    0.0000 C   0  0
   -0.6913   -4.0797    0.0000 S   0  0
   -2.1584   -3.7671    0.0000 O   0  0
   -1.6957   -5.1937    0.0000 O   0  0
    0.3114   -2.9665    0.0000 C   0  0
    1.8032   -3.1233    0.0000 C   0  0
    2.5551   -4.4192    0.0000 C   0  0
    1.8074   -5.7196    0.0000 O   0  0
    4.0559   -4.4171    0.0000 N   0  0
    4.8090   -5.7153    0.0000 C   0  0
    6.3098   -5.7131    0.0000 C   0  0
    7.0644   -7.0095    0.0000 C   0  0
    8.5644   -7.0043    0.0000 C   0  0
    9.3099   -5.7026    0.0000 C   0  0
    8.5554   -4.4062    0.0000 C   0  0
    7.0554   -4.4114    0.0000 C   0  0
    2.4133   -1.7530    0.0000 N   0  0
    1.2990   -0.7500    0.0000 C   0  0
    1.2990    0.7500    0.0000 C   0  0
    0.0000    1.5000    0.0000 C   0  0
   -1.2990    0.7500    0.0000 C   0  0
   -2.6003    1.4977    0.0000 N   0  3
   -3.8983    0.7459    0.0000 O   0  0
   -2.6030    2.9977    0.0000 O   0  5
   -1.2990   -0.7500    0.0000 C   0  0
    0.0000   -1.5000    0.0000 C   0  0
    1.2383   -5.8206    0.0000 C   0  0
  1  2  1  0
  2  3  2  0
  3  4  1  0
  4  5  1  0
  4  6  2  0
  6  7  1  0
  7  8  1  0
  8  9  2  0
  8 10  2  0
  8 11  1  0
 11 12  2  0
 12 13  1  0
 13 14  2  0
 13 15  1  0
 15 16  1  0
 16 17  1  0
 17 18  2  0
 18 19  1  0
 19 20  2  0
 20 21  1  0
 21 22  2  0
 22 17  1  0
 12 23  1  0
 23 24  1  0
 24 25  2  0
 25 26  1  0
 26 27  2  0
 27 28  1  0
 28 29  2  0
 28 30  1  0
 27 31  1  0
 31 32  2  0
 32 11  1  0
 32 24  1  0
  7 33  2  0
 33  2  1  0
M  CHG  2  28   1  30  -1
M  END
> <Smiles>
Cc1cc(C)cc(S(=O)(=O)c2c(C(=O)NCc3ccccc3)[nH]c3ccc([N+](=O)[O-])cc23)c1

> <IC50_uM>
0.017

> <pIC50>
7.769551079

> <Activity>
1

$$$$

  SciTegic10102310092D

 34 37  0  0  0  0            999 V2000
    2.5981   -1.5000    0.0000 C   0  0
    1.2990   -0.7500    0.0000 C   0  0
    1.2990    0.7500    0.0000 C   0  0
    0.0000    1.5000    0.0000 C   0  0
    0.0000    3.0008    0.0000 C   0  0
    0.0000    4.5008    0.0000 N   0  0
   -1.2990    0.7500    0.0000 C   0  0
   -1.2990   -0.7500    0.0000 C   0  0
   -2.5981   -1.5000    0.0000 C   0  0
    0.0000   -1.5000    0.0000 C   0  0
    0.0031   -3.0008    0.0000 O   0  0
    1.3039   -3.7494    0.0000 C   0  0
    2.6005   -2.9949    0.0000 N   0  0
    3.9021   -3.7404    0.0000 C   0  0
    5.2008   -2.9882    0.0000 N   0  0
    6.5021   -3.7360    0.0000 C   0  0
    7.8012   -2.9860    0.0000 C   0  0
    9.1002   -3.7360    0.0000 C   0  0
    9.1002   -5.2360    0.0000 N   0  0
   10.3999   -5.9864    0.0000 C   0  0
   11.7002   -5.2385    0.0000 C   0  0
   12.9981   -5.9906    0.0000 C   0  0
   12.9957   -7.4906    0.0000 C   0  0
   11.6954   -8.2385    0.0000 C   0  0
   11.6900   -9.7394    0.0000 C   0  0
   12.9865  -10.4937    0.0000 N   0  0
   10.3887  -10.4854    0.0000 O   0  0
   10.3976   -7.4865    0.0000 C   0  0
    7.8012   -5.9860    0.0000 C   0  0
    6.5021   -5.2360    0.0000 C   0  0
    3.9073   -5.2404    0.0000 N   0  0
    2.6108   -5.9949    0.0000 C   0  0
    1.3092   -5.2494    0.0000 C   0  0
    0.0128   -6.0039    0.0000 N   0  0
  1  2  1  0
  2  3  2  0
  3  4  1  0
  4  5  1  0
  5  6  3  0
  4  7  2  0
  7  8  1  0
  8  9  1  0
  8 10  2  0
 10  2  1  0
 10 11  1  0
 11 12  1  0
 12 13  2  0
 13 14  1  0
 14 15  1  0
 15 16  1  0
 16 17  1  0
 17 18  1  0
 18 19  1  0
 19 20  1  0
 20 21  2  0
 21 22  1  0
 22 23  2  0
 23 24  1  0
 24 25  1  0
 25 26  1  0
 25 27  2  0
 24 28  2  0
 28 20  1  0
 19 29  1  0
 29 30  1  0
 30 16  1  0
 14 31  2  0
 31 32  1  0
 32 33  2  0
 33 12  1  0
 33 34  1  0
M  END
> <Smiles>
Cc1cc(C#N)cc(C)c1Oc1nc(NC2CCN(c3cccc(C(N)=O)c3)CC2)ncc1N

> <IC50_uM>
0.017

> <pIC50>
7.769551079

> <Activity>
1

$$$$

  SciTegic10102310092D

 33 36  0  0  0  0            999 V2000
    5.1978   -4.5012    0.0000 C   0  0
    5.1983   -3.0012    0.0000 C   0  0
    6.4970   -3.7518    0.0000 C   0  0
    6.4978   -2.2520    0.0000 O   0  0
    3.8985   -2.2508    0.0000 C   0  0
    2.5988   -1.5004    0.0000 C   0  0
    1.2990   -0.7500    0.0000 C   0  0
    1.2990    0.7500    0.0000 C   0  0
    0.0000    1.5000    0.0000 C   0  0
   -1.2990    0.7500    0.0000 C   0  0
   -2.5973    1.5031    0.0000 N   0  0
   -2.5951    3.0039    0.0000 C   0  0
   -1.2948    3.7516    0.0000 O   0  0
   -3.8933    3.7570    0.0000 C   0  0
   -3.8912    5.2578    0.0000 S   0  0
   -5.1894    6.0109    0.0000 C   0  0
   -6.5408    5.3898    0.0000 N   0  0
   -7.5445    6.5046    0.0000 N   0  0
   -6.7945    7.8036    0.0000 N   0  0
   -5.3273    7.4917    0.0000 N   0  0
   -4.2061    8.4893    0.0000 C   0  0
   -4.6302    9.9300    0.0000 C   0  0
   -3.5923   11.0129    0.0000 C   0  0
   -2.1355   10.6554    0.0000 C   0  0
   -1.0970   11.7388    0.0000 C   0  0
   -0.8006   13.1292    0.0000 C   0  0
    0.2807   12.0895    0.0000 C   0  0
   -1.7166    9.2151    0.0000 C   0  0
   -2.7546    8.1322    0.0000 C   0  0
   -2.3362    6.6917    0.0000 Cl  0  0
   -1.2990   -0.7500    0.0000 C   0  0
   -2.5981   -1.5000    0.0000 Cl  0  0
    0.0000   -1.5000    0.0000 C   0  0
  1  2  1  0
  2  3  1  0
  2  4  1  0
  2  5  1  0
  5  6  3  0
  6  7  1  0
  7  8  2  0
  8  9  1  0
  9 10  2  0
 10 11  1  0
 11 12  1  0
 12 13  2  0
 12 14  1  0
 14 15  1  0
 15 16  1  0
 16 17  2  0
 17 18  1  0
 18 19  2  0
 19 20  1  0
 20 16  1  0
 20 21  1  0
 21 22  2  0
 22 23  1  0
 23 24  2  0
 24 25  1  0
 25 26  1  0
 26 27  1  0
 27 25  1  0
 24 28  1  0
 28 29  2  0
 29 21  1  0
 29 30  1  0
 10 31  1  0
 31 32  1  0
 31 33  2  0
 33  7  1  0
M  END
> <Smiles>
CC(C)(O)C#Cc1ccc(NC(=O)CSc2nnnn2-c2ccc(C3CC3)cc2Cl)c(Cl)c1

> <IC50_uM>
0.017

> <pIC50>
7.769551079

> <Activity>
1

$$$$

  SciTegic10102310092D

 34 37  0  0  0  0            999 V2000
    5.1978   -4.5012    0.0000 C   0  0
    5.1983   -3.0012    0.0000 C   0  0
    3.8991   -3.7510    0.0000 C   0  0
    3.8985   -2.2508    0.0000 C   0  0
    2.5988   -1.5004    0.0000 C   0  0
    1.2990   -0.7500    0.0000 C   0  0
    1.2990    0.7500    0.0000 C   0  0
    0.0000    1.5000    0.0000 C   0  0
   -1.2990    0.7500    0.0000 C   0  0
   -2.5973    1.5031    0.0000 N   0  0
   -2.5951    3.0039    0.0000 C   0  0
   -1.2948    3.7516    0.0000 O   0  0
   -3.8933    3.7570    0.0000 C   0  0
   -3.8912    5.2578    0.0000 S   0  0
   -5.1894    6.0109    0.0000 C   0  0
   -6.5408    5.3898    0.0000 N   0  0
   -7.5445    6.5046    0.0000 N   0  0
   -6.7945    7.8036    0.0000 N   0  0
   -5.3273    7.4917    0.0000 N   0  0
   -4.2061    8.4893    0.0000 C   0  0
   -4.6302    9.9300    0.0000 C   0  0
   -3.5923   11.0129    0.0000 C   0  0
   -2.1355   10.6554    0.0000 C   0  0
   -1.0970   11.7388    0.0000 C   0  0
   -0.8006   13.1292    0.0000 C   0  0
    0.2807   12.0895    0.0000 C   0  0
   -1.7166    9.2151    0.0000 C   0  0
   -2.7546    8.1322    0.0000 C   0  0
   -2.3362    6.6917    0.0000 Cl  0  0
   -1.2990   -0.7500    0.0000 C   0  0
   -2.5981   -1.5000    0.0000 Cl  0  0
    0.0000   -1.5000    0.0000 C   0  0
    6.4985   -2.2516    0.0000 C   0  0
    7.7976   -3.0016    0.0000 O   0  0
  1  2  1  0
  2  3  1  0
  2  4  1  0
  4  5  3  0
  5  6  1  0
  6  7  2  0
  7  8  1  0
  8  9  2  0
  9 10  1  0
 10 11  1  0
 11 12  2  0
 11 13  1  0
 13 14  1  0
 14 15  1  0
 15 16  2  0
 16 17  1  0
 17 18  2  0
 18 19  1  0
 19 15  1  0
 19 20  1  0
 20 21  2  0
 21 22  1  0
 22 23  2  0
 23 24  1  0
 24 25  1  0
 25 26  1  0
 26 24  1  0
 23 27  1  0
 27 28  2  0
 28 20  1  0
 28 29  1  0
  9 30  1  0
 30 31  1  0
 30 32  2  0
 32  6  1  0
  2 33  1  0
 33 34  1  0
M  END
> <Smiles>
CC(C)(C#Cc1ccc(NC(=O)CSc2nnnn2-c2ccc(C3CC3)cc2Cl)c(Cl)c1)CO

> <IC50_uM>
0.017

> <pIC50>
7.769551079

> <Activity>
1

$$$$

  SciTegic10102310092D

 34 37  0  0  0  0            999 V2000
    3.8983   -0.7459    0.0000 C   0  0
    2.6003   -1.4977    0.0000 O   0  0
    1.2990   -0.7500    0.0000 C   0  0
    1.2990    0.7500    0.0000 C   0  0
    0.0000    1.5000    0.0000 C   0  0
    0.0000    3.0008    0.0000 C   0  0
    0.0000    4.5008    0.0000 N   0  0
   -1.2990    0.7500    0.0000 C   0  0
   -1.2990   -0.7500    0.0000 C   0  0
   -2.5981   -1.5000    0.0000 C   0  0
    0.0000   -1.5000    0.0000 C   0  0
    0.0031   -3.0008    0.0000 O   0  0
   -1.2946   -3.7547    0.0000 C   0  0
   -1.2937   -5.2548    0.0000 C   0  0
   -2.5923   -6.0056    0.0000 C   0  0
   -3.8918   -5.2565    0.0000 N   0  0
   -3.8928   -3.7565    0.0000 C   0  0
   -5.1915   -3.0042    0.0000 N   0  0
   -5.1904   -1.5034    0.0000 C   0  0
   -6.4873   -0.7497    0.0000 C   0  0
   -6.4831    0.7503    0.0000 C   0  0
   -5.1819    1.4967    0.0000 N   0  0
   -5.1777    2.9974    0.0000 C   0  0
   -6.4735    3.7532    0.0000 C   0  0
   -6.4669    5.2532    0.0000 C   0  0
   -5.1646    5.9975    0.0000 C   0  0
   -3.8688    5.2418    0.0000 C   0  0
   -2.5643    5.9838    0.0000 C   0  0
   -2.5551    7.4838    0.0000 N   0  0
   -1.2696    5.2263    0.0000 O   0  0
   -3.8754    3.7418    0.0000 C   0  0
   -3.8850    0.7430    0.0000 C   0  0
   -3.8892   -0.7570    0.0000 C   0  0
   -2.5943   -3.0056    0.0000 N   0  0
  1  2  1  0
  2  3  1  0
  3  4  2  0
  4  5  1  0
  5  6  1  0
  6  7  3  0
  5  8  2  0
  8  9  1  0
  9 10  1  0
  9 11  2  0
 11  3  1  0
 11 12  1  0
 12 13  1  0
 13 14  2  0
 14 15  1  0
 15 16  2  0
 16 17  1  0
 17 18  1  0
 18 19  1  0
 19 20  1  0
 20 21  1  0
 21 22  1  0
 22 23  1  0
 23 24  2  0
 24 25  1  0
 25 26  2  0
 26 27  1  0
 27 28  1  0
 28 29  1  0
 28 30  2  0
 27 31  2  0
 31 23  1  0
 22 32  1  0
 32 33  1  0
 33 19  1  0
 17 34  2  0
 34 13  1  0
M  END
> <Smiles>
COc1cc(C#N)cc(C)c1Oc1ccnc(NC2CCN(c3cccc(C(N)=O)c3)CC2)n1

> <IC50_uM>
0.018

> <pIC50>
7.744727495

> <Activity>
1

$$$$

  SciTegic10102310092D

 24 26  0  0  0  0            999 V2000
    3.8978   -2.2504    0.0000 N   0  0
    2.5988   -1.5004    0.0000 C   0  0
    1.2990   -0.7500    0.0000 C   0  0
    1.2990    0.7500    0.0000 C   0  0
    0.0000    1.5000    0.0000 C   0  0
   -1.2990    0.7500    0.0000 C   0  0
   -2.6003    1.4977    0.0000 N   0  0
   -3.8990    0.7455    0.0000 C   0  0
   -5.2007    1.4909    0.0000 N   0  0
   -6.4972    0.7364    0.0000 C   0  0
   -6.4920   -0.7636    0.0000 C   0  0
   -5.1903   -1.5091    0.0000 C   0  0
   -5.1821   -3.0099    0.0000 N   0  0
   -3.8787   -3.7540    0.0000 C   0  0
   -3.8704   -5.2548    0.0000 C   0  0
   -2.5687   -6.0003    0.0000 C   0  0
   -2.5635   -7.5003    0.0000 C   0  0
   -3.8599   -8.2548    0.0000 C   0  0
   -5.1616   -7.5094    0.0000 C   0  0
   -6.4580   -8.2639    0.0000 Cl  0  0
   -5.1668   -6.0094    0.0000 C   0  0
   -3.8939   -0.7546    0.0000 N   0  0
   -1.2990   -0.7500    0.0000 C   0  0
    0.0000   -1.5000    0.0000 C   0  0
  1  2  3  0
  2  3  1  0
  3  4  2  0
  4  5  1  0
  5  6  2  0
  6  7  1  0
  7  8  1  0
  8  9  2  0
  9 10  1  0
 10 11  2  0
 11 12  1  0
 12 13  1  0
 13 14  1  0
 14 15  1  0
 15 16  2  0
 16 17  1  0
 17 18  2  0
 18 19  1  0
 19 20  1  0
 19 21  2  0
 21 15  1  0
 12 22  2  0
 22  8  1  0
  6 23  1  0
 23 24  2  0
 24  3  1  0
M  END
> <Smiles>
N#Cc1ccc(Nc2nccc(NCc3cccc(Cl)c3)n2)cc1

> <IC50_uM>
0.018

> <pIC50>
7.744727495

> <Activity>
1

$$$$

  SciTegic10102310092D

 32 35  0  0  0  0            999 V2000
    3.1676   -7.5606    0.0000 C   0  0
    1.7006   -7.2475    0.0000 C   0  0
    0.6960   -8.3614    0.0000 C   0  0
   -0.7710   -8.0483    0.0000 C   0  0
   -1.7756   -9.1622    0.0000 C   0  0
   -1.2333   -6.6213    0.0000 C   0  0
   -0.2287   -5.5075    0.0000 C   0  0
   -0.6913   -4.0797    0.0000 S   0  0
   -2.1584   -3.7671    0.0000 O   0  0
   -1.6957   -5.1937    0.0000 O   0  0
    0.3114   -2.9665    0.0000 C   0  0
    1.8032   -3.1233    0.0000 C   0  0
    2.5551   -4.4192    0.0000 C   0  0
    1.8074   -5.7196    0.0000 O   0  0
    4.0559   -4.4171    0.0000 N   0  0
    4.8090   -5.7153    0.0000 C   0  0
    6.3098   -5.7131    0.0000 C   0  0
    7.0629   -7.0113    0.0000 N   0  0
    8.5438   -7.1491    0.0000 C   0  0
    8.8557   -8.6163    0.0000 C   0  0
    7.5567   -9.3664    0.0000 C   0  0
    6.4419   -8.3627    0.0000 C   0  0
    2.4133   -1.7530    0.0000 N   0  0
    1.2990   -0.7500    0.0000 C   0  0
    1.2990    0.7500    0.0000 C   0  0
    0.0000    1.5000    0.0000 C   0  0
   -1.2990    0.7500    0.0000 C   0  0
   -2.5981    1.5000    0.0000 Cl  0  0
   -1.2990   -0.7500    0.0000 C   0  0
   -2.5981   -1.5000    0.0000 F   0  0
    0.0000   -1.5000    0.0000 C   0  0
    1.2383   -5.8206    0.0000 C   0  0
  1  2  1  0
  2  3  2  0
  3  4  1  0
  4  5  1  0
  4  6  2  0
  6  7  1  0
  7  8  1  0
  8  9  2  0
  8 10  2  0
  8 11  1  0
 11 12  2  0
 12 13  1  0
 13 14  2  0
 13 15  1  0
 15 16  1  0
 16 17  1  0
 17 18  1  0
 18 19  1  0
 19 20  2  0
 20 21  1  0
 21 22  2  0
 22 18  1  0
 12 23  1  0
 23 24  1  0
 24 25  2  0
 25 26  1  0
 26 27  2  0
 27 28  1  0
 27 29  1  0
 29 30  1  0
 29 31  2  0
 31 11  1  0
 31 24  1  0
  7 32  2  0
 32  2  1  0
M  END
> <Smiles>
Cc1cc(C)cc(S(=O)(=O)c2c(C(=O)NCCn3cccc3)[nH]c3ccc(Cl)c(F)c23)c1

> <IC50_uM>
0.018

> <pIC50>
7.744727495

> <Activity>
1

$$$$

  SciTegic10102310092D

 25 27  0  0  0  0            999 V2000
    2.5951   -3.0031    0.0000 C   0  0
    2.5973   -1.5031    0.0000 O   0  0
    1.2990   -0.7500    0.0000 C   0  0
    1.2990    0.7500    0.0000 C   0  0
    0.0000    1.5000    0.0000 C   0  0
   -1.2990    0.7500    0.0000 C   0  0
   -1.2990   -0.7500    0.0000 C   0  0
   -2.5972   -1.5031    0.0000 C   0  0
   -2.5951   -3.0039    0.0000 N   0  0
   -3.8933   -3.7570    0.0000 C   0  0
   -3.8934   -5.2570    0.0000 C   0  0
   -5.1924   -6.0071    0.0000 C   0  0
   -6.4914   -5.2571    0.0000 N   0  0
   -6.4915   -3.7571    0.0000 C   0  0
   -7.7897   -3.0041    0.0000 N   0  0
   -7.7876   -1.5032    0.0000 C   0  0
   -9.0841   -0.7487    0.0000 C   0  0
   -9.0789    0.7513    0.0000 C   0  0
   -7.7773    1.4968    0.0000 C   0  0
   -7.7722    2.9977    0.0000 C   0  0
   -7.7670    4.4976    0.0000 N   0  0
   -6.4808    0.7424    0.0000 C   0  0
   -6.4860   -0.7576    0.0000 C   0  0
   -5.1925   -3.0071    0.0000 N   0  0
    0.0000   -1.5000    0.0000 C   0  0
  1  2  1  0
  2  3  1  0
  3  4  2  0
  4  5  1  0
  5  6  2  0
  6  7  1  0
  7  8  1  0
  8  9  1  0
  9 10  1  0
 10 11  2  0
 11 12  1  0
 12 13  2  0
 13 14  1  0
 14 15  1  0
 15 16  1  0
 16 17  2  0
 17 18  1  0
 18 19  2  0
 19 20  1  0
 20 21  3  0
 19 22  1  0
 22 23  2  0
 23 16  1  0
 14 24  2  0
 24 10  1  0
  7 25  2  0
 25  3  1  0
M  END
> <Smiles>
COc1cccc(CNc2ccnc(Nc3ccc(C#N)cc3)n2)c1

> <IC50_uM>
0.018

> <pIC50>
7.744727495

> <Activity>
1

$$$$

  SciTegic10102310092D

 23 25  0  0  0  0            999 V2000
    2.5981   -1.5000    0.0000 O   0  0
    1.2990   -0.7500    0.0000 C   0  0
    1.2990    0.7500    0.0000 C   0  0
    0.0000    1.5000    0.0000 C   0  0
   -0.0031    3.0008    0.0000 C   0  0
   -1.3039    3.7494    0.0000 C   0  0
   -1.3092    5.2494    0.0000 C   0  0
   -2.6108    5.9949    0.0000 C   0  0
   -3.9073    5.2404    0.0000 C   0  0
   -3.9021    3.7404    0.0000 C   0  0
   -5.1992    2.9855    0.0000 C   0  0
   -6.5021    3.7289    0.0000 C   0  0
   -7.7973    2.9724    0.0000 C   0  0
   -7.7897    1.4724    0.0000 C   0  0
   -6.4869    0.7290    0.0000 C   0  0
   -6.4793   -0.7710    0.0000 F   0  0
   -5.1917    1.4855    0.0000 C   0  0
   -2.6005    2.9949    0.0000 C   0  0
   -1.2990    0.7500    0.0000 N   0  0
   -1.2990   -0.7500    0.0000 C   0  0
   -2.5981   -1.5000    0.0000 O   0  0
    0.0000   -1.5000    0.0000 N   0  0
    0.0000   -3.0000    0.0000 O   0  0
  1  2  2  0
  2  3  1  0
  3  4  2  0
  4  5  1  0
  5  6  1  0
  6  7  2  0
  7  8  1  0
  8  9  2  0
  9 10  1  0
 10 11  1  0
 11 12  2  0
 12 13  1  0
 13 14  2  0
 14 15  1  0
 15 16  1  0
 15 17  2  0
 17 11  1  0
 10 18  2  0
 18  6  1  0
  4 19  1  0
 19 20  1  0
 20 21  2  0
 20 22  1  0
 22  2  1  0
 22 23  1  0
M  END
> <Smiles>
O=c1cc(Cc2cccc(-c3cccc(F)c3)c2)[nH]c(=O)n1O

> <IC50_uM>
0.018

> <pIC50>
7.744727495

> <Activity>
1

$$$$

  SciTegic10102310092D

 34 37  0  0  0  0            999 V2000
    2.5981   -1.5000    0.0000 C   0  0
    1.2990   -0.7500    0.0000 C   0  0
    1.2990    0.7500    0.0000 C   0  0
    0.0000    1.5000    0.0000 C   0  0
    0.0000    3.0008    0.0000 C   0  0
    0.0000    4.5008    0.0000 N   0  0
   -1.2990    0.7500    0.0000 C   0  0
   -1.2990   -0.7500    0.0000 C   0  0
   -2.5981   -1.5000    0.0000 C   0  0
    0.0000   -1.5000    0.0000 C   0  0
    0.0031   -3.0008    0.0000 N   0  0
    1.3039   -3.7494    0.0000 C   0  0
    2.6005   -2.9949    0.0000 N   0  0
    3.9021   -3.7404    0.0000 C   0  0
    5.2008   -2.9882    0.0000 N   0  0
    6.5021   -3.7360    0.0000 C   0  0
    7.8012   -2.9860    0.0000 C   0  0
    9.1002   -3.7360    0.0000 C   0  0
    9.1002   -5.2360    0.0000 N   0  0
   10.3999   -5.9864    0.0000 C   0  0
   11.7002   -5.2385    0.0000 C   0  0
   12.9981   -5.9906    0.0000 C   0  0
   12.9957   -7.4906    0.0000 C   0  0
   11.6954   -8.2385    0.0000 C   0  0
   11.6900   -9.7394    0.0000 C   0  0
   12.9865  -10.4937    0.0000 N   0  0
   10.3887  -10.4854    0.0000 O   0  0
   10.3976   -7.4865    0.0000 C   0  0
    7.8012   -5.9860    0.0000 C   0  0
    6.5021   -5.2360    0.0000 C   0  0
    3.9073   -5.2404    0.0000 N   0  0
    2.6108   -5.9949    0.0000 C   0  0
    1.3092   -5.2494    0.0000 C   0  0
    0.0128   -6.0039    0.0000 Br  0  0
  1  2  1  0
  2  3  2  0
  3  4  1  0
  4  5  1  0
  5  6  3  0
  4  7  2  0
  7  8  1  0
  8  9  1  0
  8 10  2  0
 10  2  1  0
 10 11  1  0
 11 12  1  0
 12 13  2  0
 13 14  1  0
 14 15  1  0
 15 16  1  0
 16 17  1  0
 17 18  1  0
 18 19  1  0
 19 20  1  0
 20 21  2  0
 21 22  1  0
 22 23  2  0
 23 24  1  0
 24 25  1  0
 25 26  1  0
 25 27  2  0
 24 28  2  0
 28 20  1  0
 19 29  1  0
 29 30  1  0
 30 16  1  0
 14 31  2  0
 31 32  1  0
 32 33  2  0
 33 12  1  0
 33 34  1  0
M  END
> <Smiles>
Cc1cc(C#N)cc(C)c1Nc1nc(NC2CCN(c3cccc(C(N)=O)c3)CC2)ncc1Br

> <IC50_uM>
0.019

> <pIC50>
7.721246399

> <Activity>
1

$$$$

  SciTegic10102310092D

 30 32  0  0  0  0            999 V2000
   14.2905    0.7816    0.0000 N   0  0
   12.9891    1.5275    0.0000 S   0  0
   12.9848    3.0275    0.0000 O   0  0
   14.2859    2.2814    0.0000 O   0  0
   11.6919    0.7726    0.0000 C   0  0
   10.3903    1.5181    0.0000 C   0  0
    9.0939    0.7636    0.0000 C   0  0
    9.0990   -0.7364    0.0000 C   0  0
    7.8003   -1.4887    0.0000 N   0  0
    6.4990   -0.7409    0.0000 C   0  0
    6.4964    0.7591    0.0000 O   0  0
    5.2003   -1.4932    0.0000 C   0  0
    3.8990   -0.7455    0.0000 O   0  0
    2.6003   -1.4977    0.0000 C   0  0
    2.6030   -2.9977    0.0000 O   0  0
    1.2990   -0.7500    0.0000 N   0  0
    1.2990    0.7500    0.0000 C   0  0
    0.0000    1.5000    0.0000 C   0  0
   -1.2990    0.7500    0.0000 C   0  0
   -1.2990   -0.7500    0.0000 C   0  0
   -2.5981   -1.5000    0.0000 C   0  0
   -2.5981   -3.0000    0.0000 C   0  0
   -3.8971   -3.7500    0.0000 Cl  0  0
   -1.2990   -3.7500    0.0000 C   0  0
    0.0000   -3.0000    0.0000 C   0  0
    1.2991   -3.7500    0.0000 Cl  0  0
    0.0000   -1.5000    0.0000 C   0  0
   10.4007   -1.4818    0.0000 C   0  0
   10.4059   -2.9818    0.0000 Cl  0  0
   11.6971   -0.7274    0.0000 C   0  0
  1  2  1  0
  2  3  2  0
  2  4  2  0
  2  5  1  0
  5  6  2  0
  6  7  1  0
  7  8  2  0
  8  9  1  0
  9 10  1  0
 10 11  2  0
 10 12  1  0
 12 13  1  0
 13 14  1  0
 14 15  2  0
 14 16  1  0
 16 17  1  0
 17 18  1  0
 18 19  1  0
 19 20  1  0
 20 21  2  0
 21 22  1  0
 22 23  1  0
 22 24  2  0
 24 25  1  0
 25 26  1  0
 25 27  2  0
 27 20  1  0
 27 16  1  0
  8 28  1  0
 28 29  1  0
 28 30  2  0
 30  5  1  0
M  END
> <Smiles>
NS(=O)(=O)c1ccc(NC(=O)COC(=O)N2CCCc3cc(Cl)cc(Cl)c32)c(Cl)c1

> <IC50_uM>
0.019

> <pIC50>
7.721246399

> <Activity>
1

$$$$

  SciTegic10102310092D

 39 42  0  0  0  0            999 V2000
    5.1978   -4.5012    0.0000 C   0  0
    5.1983   -3.0012    0.0000 C   0  0
    3.8991   -3.7510    0.0000 C   0  0
    3.8985   -2.2508    0.0000 C   0  0
    2.5988   -1.5004    0.0000 C   0  0
    1.2990   -0.7500    0.0000 C   0  0
    1.2990    0.7500    0.0000 C   0  0
    0.0000    1.5000    0.0000 C   0  0
   -1.2990    0.7500    0.0000 C   0  0
   -2.5973    1.5031    0.0000 N   0  0
   -2.5951    3.0039    0.0000 C   0  0
   -1.2948    3.7516    0.0000 O   0  0
   -3.8933    3.7570    0.0000 C   0  0
   -3.8912    5.2578    0.0000 S   0  0
   -5.1894    6.0109    0.0000 C   0  0
   -6.5408    5.3898    0.0000 N   0  0
   -7.5445    6.5046    0.0000 N   0  0
   -6.7945    7.8036    0.0000 N   0  0
   -5.3273    7.4917    0.0000 N   0  0
   -4.2061    8.4893    0.0000 C   0  0
   -4.6302    9.9300    0.0000 C   0  0
   -3.5923   11.0129    0.0000 C   0  0
   -2.1355   10.6554    0.0000 C   0  0
   -1.0970   11.7388    0.0000 C   0  0
   -0.8006   13.1292    0.0000 C   0  0
    0.2807   12.0895    0.0000 C   0  0
   -1.7166    9.2151    0.0000 C   0  0
   -2.7546    8.1322    0.0000 C   0  0
   -2.3362    6.6917    0.0000 Cl  0  0
   -1.2990   -0.7500    0.0000 C   0  0
   -2.5981   -1.5000    0.0000 Cl  0  0
    0.0000   -1.5000    0.0000 C   0  0
    6.4985   -2.2516    0.0000 C   0  0
    6.4990   -0.7516    0.0000 O   0  0
    7.7983   -3.0020    0.0000 N   0  0
    9.0985   -2.2525    0.0000 S   0  0
   10.3977   -1.5027    0.0000 C   0  0
   10.3975   -3.0025    0.0000 O   0  0
    9.0990   -0.7525    0.0000 O   0  0
  1  2  1  0
  2  3  1  0
  2  4  1  0
  4  5  3  0
  5  6  1  0
  6  7  2  0
  7  8  1  0
  8  9  2  0
  9 10  1  0
 10 11  1  0
 11 12  2  0
 11 13  1  0
 13 14  1  0
 14 15  1  0
 15 16  2  0
 16 17  1  0
 17 18  2  0
 18 19  1  0
 19 15  1  0
 19 20  1  0
 20 21  2  0
 21 22  1  0
 22 23  2  0
 23 24  1  0
 24 25  1  0
 25 26  1  0
 26 24  1  0
 23 27  1  0
 27 28  2  0
 28 20  1  0
 28 29  1  0
  9 30  1  0
 30 31  1  0
 30 32  2  0
 32  6  1  0
  2 33  1  0
 33 34  2  0
 33 35  1  0
 35 36  1  0
 36 37  1  0
 36 38  2  0
 36 39  2  0
M  END
> <Smiles>
CC(C)(C#Cc1ccc(NC(=O)CSc2nnnn2-c2ccc(C3CC3)cc2Cl)c(Cl)c1)C(=O)NS(C)(=O)=O

> <IC50_uM>
0.019

> <pIC50>
7.721246399

> <Activity>
1

$$$$

  SciTegic10102310092D

 25 27  0  0  0  0            999 V2000
    2.5981   -1.5000    0.0000 C   0  0
    1.2990   -0.7500    0.0000 C   0  0
    1.2990    0.7500    0.0000 C   0  0
    0.0000    1.5000    0.0000 C   0  0
    0.0000    3.0008    0.0000 C   0  0
    1.2978    3.7529    0.0000 C   0  0
    1.2954    5.2529    0.0000 C   0  0
   -0.0048    6.0009    0.0000 C   0  0
   -0.0103    7.5017    0.0000 C   0  0
    1.2863    8.2560    0.0000 O   0  0
   -1.3123    8.2482    0.0000 C   0  0
   -1.3199    9.7482    0.0000 C   0  0
   -2.6228   10.4916    0.0000 C   0  0
   -2.6303   11.9916    0.0000 O   0  0
   -3.9180    9.7351    0.0000 N   0  0
   -5.2208   10.4785    0.0000 O   0  0
   -3.9104    8.2351    0.0000 C   0  0
   -5.2056    7.4785    0.0000 O   0  0
   -2.6076    7.4917    0.0000 N   0  0
   -1.3026    5.2488    0.0000 C   0  0
   -1.3002    3.7488    0.0000 C   0  0
   -1.2990    0.7500    0.0000 C   0  0
   -1.2990   -0.7500    0.0000 C   0  0
    0.0000   -1.5000    0.0000 C   0  0
    0.0000   -3.0000    0.0000 F   0  0
  1  2  1  0
  2  3  2  0
  3  4  1  0
  4  5  1  0
  5  6  2  0
  6  7  1  0
  7  8  2  0
  8  9  1  0
  9 10  2  0
  9 11  1  0
 11 12  2  0
 12 13  1  0
 13 14  2  0
 13 15  1  0
 15 16  1  0
 15 17  1  0
 17 18  2  0
 17 19  1  0
 19 11  1  0
  8 20  1  0
 20 21  2  0
 21  5  1  0
  4 22  2  0
 22 23  1  0
 23 24  2  0
 24  2  1  0
 24 25  1  0
M  END
> <Smiles>
Cc1cc(-c2ccc(C(=O)c3cc(=O)n(O)c(=O)[nH]3)cc2)ccc1F

> <IC50_uM>
0.019

> <pIC50>
7.721246399

> <Activity>
1

$$$$

  SciTegic10102310092D

 34 36  0  0  0  0            999 V2000
    9.0983   -0.7368    0.0000 C   0  0
    7.8003   -1.4887    0.0000 N   0  0
    7.8029   -2.9887    0.0000 C   0  0
    6.4990   -0.7409    0.0000 C   0  0
    5.2003   -1.4932    0.0000 C   0  0
    3.8990   -0.7455    0.0000 N   0  0
    2.6003   -1.4977    0.0000 C   0  0
    2.6030   -2.9977    0.0000 O   0  0
    1.2990   -0.7500    0.0000 C   0  0
    1.2990    0.7500    0.0000 C   0  0
    0.0000    1.5000    0.0000 N   0  0
   -1.2990    0.7500    0.0000 C   0  0
   -2.6003    1.4977    0.0000 N   0  0
   -3.8990    0.7455    0.0000 C   0  0
   -5.2007    1.4909    0.0000 C   0  0
   -6.4972    0.7364    0.0000 C   0  0
   -6.4920   -0.7636    0.0000 C   0  0
   -7.7891   -1.5185    0.0000 C   0  0
   -9.0855   -2.2730    0.0000 N   0  0
   -5.1903   -1.5091    0.0000 C   0  0
   -3.8939   -0.7546    0.0000 C   0  0
   -1.2990   -0.7500    0.0000 N   0  0
    0.0000   -1.5000    0.0000 C   0  0
   -0.0031   -3.0008    0.0000 N   0  0
   -1.3039   -3.7494    0.0000 C   0  0
   -1.3092   -5.2494    0.0000 C   0  0
   -2.6108   -5.9949    0.0000 C   0  0
   -3.9072   -5.2404    0.0000 C   0  0
   -5.2111   -5.9837    0.0000 C   0  0
   -6.5072   -5.2269    0.0000 C   0  0
   -7.8111   -5.9702    0.0000 C   0  0
   -9.1142   -6.7130    0.0000 N   0  0
   -3.9020   -3.7404    0.0000 C   0  0
   -2.6004   -2.9949    0.0000 C   0  0
  1  2  1  0
  2  3  1  0
  2  4  1  0
  4  5  1  0
  5  6  1  0
  6  7  1  0
  7  8  2  0
  7  9  1  0
  9 10  2  0
 10 11  1  0
 11 12  2  0
 12 13  1  0
 13 14  1  0
 14 15  2  0
 15 16  1  0
 16 17  2  0
 17 18  1  0
 18 19  3  0
 17 20  1  0
 20 21  2  0
 21 14  1  0
 12 22  1  0
 22 23  2  0
 23  9  1  0
 23 24  1  0
 24 25  1  0
 25 26  2  0
 26 27  1  0
 27 28  2  0
 28 29  1  0
 29 30  2  0
 30 31  1  0
 31 32  3  0
 28 33  1  0
 33 34  2  0
 34 25  1  0
M  END
> <Smiles>
CN(C)CCNC(=O)c1cnc(Nc2ccc(C#N)cc2)nc1Nc1ccc(/C=C/C#N)cc1

> <IC50_uM>
0.01995

> <pIC50>
7.7000571

> <Activity>
1

$$$$

  SciTegic10102310092D

 34 37  0  0  0  0            999 V2000
    2.5981   -1.5000    0.0000 C   0  0
    1.2990   -0.7500    0.0000 C   0  0
    1.2990    0.7500    0.0000 C   0  0
    0.0000    1.5000    0.0000 C   0  0
    0.0000    3.0008    0.0000 C   0  0
    0.0000    4.5008    0.0000 N   0  0
   -1.2990    0.7500    0.0000 C   0  0
   -1.2990   -0.7500    0.0000 C   0  0
   -2.5981   -1.5000    0.0000 Cl  0  0
    0.0000   -1.5000    0.0000 C   0  0
    0.0031   -3.0008    0.0000 O   0  0
    1.3039   -3.7494    0.0000 C   0  0
    2.6005   -2.9949    0.0000 N   0  0
    3.9021   -3.7404    0.0000 C   0  0
    5.2008   -2.9882    0.0000 N   0  0
    6.5021   -3.7360    0.0000 C   0  0
    7.8012   -2.9860    0.0000 C   0  0
    9.1002   -3.7360    0.0000 C   0  0
    9.1002   -5.2360    0.0000 N   0  0
   10.3999   -5.9864    0.0000 C   0  0
   11.7002   -5.2385    0.0000 C   0  0
   12.9981   -5.9906    0.0000 C   0  0
   12.9957   -7.4906    0.0000 C   0  0
   11.6954   -8.2385    0.0000 C   0  0
   11.6900   -9.7394    0.0000 C   0  0
   12.9865  -10.4937    0.0000 N   0  0
   10.3887  -10.4854    0.0000 O   0  0
   10.3976   -7.4865    0.0000 C   0  0
    7.8012   -5.9860    0.0000 C   0  0
    6.5021   -5.2360    0.0000 C   0  0
    3.9073   -5.2404    0.0000 N   0  0
    2.6108   -5.9949    0.0000 C   0  0
    1.3092   -5.2494    0.0000 C   0  0
    0.0128   -6.0039    0.0000 Cl  0  0
  1  2  1  0
  2  3  2  0
  3  4  1  0
  4  5  1  0
  5  6  3  0
  4  7  2  0
  7  8  1  0
  8  9  1  0
  8 10  2  0
 10  2  1  0
 10 11  1  0
 11 12  1  0
 12 13  2  0
 13 14  1  0
 14 15  1  0
 15 16  1  0
 16 17  1  0
 17 18  1  0
 18 19  1  0
 19 20  1  0
 20 21  2  0
 21 22  1  0
 22 23  2  0
 23 24  1  0
 24 25  1  0
 25 26  1  0
 25 27  2  0
 24 28  2  0
 28 20  1  0
 19 29  1  0
 29 30  1  0
 30 16  1  0
 14 31  2  0
 31 32  1  0
 32 33  2  0
 33 12  1  0
 33 34  1  0
M  END
> <Smiles>
Cc1cc(C#N)cc(Cl)c1Oc1nc(NC2CCN(c3cccc(C(N)=O)c3)CC2)ncc1Cl

> <IC50_uM>
0.02

> <pIC50>
7.698970004

> <Activity>
1

$$$$

  SciTegic10102310092D

 34 36  0  0  0  0            999 V2000
   -1.3168   -9.7480    0.0000 C   0  0
   -1.3135   -8.2480    0.0000 O   0  0
   -0.0126   -7.4996    0.0000 C   0  0
    1.2850   -8.2520    0.0000 O   0  0
   -0.0094   -5.9988    0.0000 C   0  0
    1.2915   -5.2503    0.0000 C   0  0
    1.2948   -3.7495    0.0000 C   0  0
    2.5957   -3.0011    0.0000 C   0  0
    2.5990   -1.5003    0.0000 C   0  0
    3.8990   -0.7504    0.0000 C   0  0
    3.9040    0.7496    0.0000 C   0  0
    5.2054    1.4954    0.0000 C   0  0
    5.2103    2.9954    0.0000 C   0  0
    6.5020    0.7412    0.0000 C   0  0
    7.8057    1.4847    0.0000 O   0  0
    9.1013    0.7287    0.0000 C   0  0
    6.4972   -0.7588    0.0000 C   0  0
    7.7929   -1.5161    0.0000 C   0  0
    9.0957   -0.7726    0.0000 O   0  0
    7.7860   -3.0169    0.0000 O   0  0
    9.0810   -3.7738    0.0000 C   0  0
    5.1957   -1.5046    0.0000 C   0  0
    1.2990   -0.7500    0.0000 C   0  0
    1.2990    0.7500    0.0000 C   0  0
    0.0000    1.5000    0.0000 C   0  0
    0.0000    3.0000    0.0000 C   0  0
   -1.2990    0.7500    0.0000 C   0  0
   -2.7248    1.2135    0.0000 O   0  0
   -3.6065    0.0000    0.0000 C   0  0
   -5.1065    0.0000    0.0000 O   0  0
   -2.7248   -1.2135    0.0000 N   0  0
   -3.1882   -2.6402    0.0000 C   0  0
   -1.2990   -0.7500    0.0000 C   0  0
    0.0000   -1.5000    0.0000 C   0  0
  1  2  1  0
  2  3  1  0
  3  4  2  0
  3  5  1  0
  5  6  1  0
  6  7  1  0
  7  8  1  0
  8  9  2  0
  9 10  1  0
 10 11  2  0
 11 12  1  0
 12 13  1  0
 12 14  2  0
 14 15  1  0
 15 16  1  0
 14 17  1  0
 17 18  1  0
 18 19  2  0
 18 20  1  0
 20 21  1  0
 17 22  2  0
 22 10  1  0
  9 23  1  0
 23 24  2  0
 24 25  1  0
 25 26  1  0
 25 27  2  0
 27 28  1  0
 28 29  1  0
 29 30  2  0
 29 31  1  0
 31 32  1  0
 31 33  1  0
 33 27  1  0
 33 34  2  0
 34 23  1  0
M  END
> <Smiles>
COC(=O)CCC/C=C(/c1cc(C)c(OC)c(C(=O)OC)c1)c1cc(C)c2oc(=O)n(C)c2c1

> <IC50_uM>
0.02

> <pIC50>
7.698970004

> <Activity>
1

$$$$

  SciTegic10102310092D

 23 25  0  0  0  0            999 V2000
    3.8978   -2.2504    0.0000 N   0  0
    2.5988   -1.5004    0.0000 C   0  0
    1.2990   -0.7500    0.0000 C   0  0
    1.2990    0.7500    0.0000 C   0  0
    0.0000    1.5000    0.0000 C   0  0
   -1.2990    0.7500    0.0000 C   0  0
   -2.6003    1.4977    0.0000 N   0  0
   -3.8990    0.7455    0.0000 C   0  0
   -5.2007    1.4909    0.0000 N   0  0
   -6.4972    0.7364    0.0000 C   0  0
   -6.4920   -0.7636    0.0000 C   0  0
   -5.1903   -1.5091    0.0000 C   0  0
   -5.1821   -3.0099    0.0000 N   0  0
   -3.8787   -3.7540    0.0000 C   0  0
   -3.8704   -5.2548    0.0000 C   0  0
   -2.5687   -6.0003    0.0000 C   0  0
   -2.5635   -7.5003    0.0000 C   0  0
   -3.8599   -8.2548    0.0000 C   0  0
   -5.1616   -7.5094    0.0000 C   0  0
   -5.1668   -6.0094    0.0000 C   0  0
   -3.8939   -0.7546    0.0000 N   0  0
   -1.2990   -0.7500    0.0000 C   0  0
    0.0000   -1.5000    0.0000 C   0  0
  1  2  3  0
  2  3  1  0
  3  4  2  0
  4  5  1  0
  5  6  2  0
  6  7  1  0
  7  8  1  0
  8  9  2  0
  9 10  1  0
 10 11  2  0
 11 12  1  0
 12 13  1  0
 13 14  1  0
 14 15  1  0
 15 16  2  0
 16 17  1  0
 17 18  2  0
 18 19  1  0
 19 20  2  0
 20 15  1  0
 12 21  2  0
 21  8  1  0
  6 22  1  0
 22 23  2  0
 23  3  1  0
M  END
> <Smiles>
N#Cc1ccc(Nc2nccc(NCc3ccccc3)n2)cc1

> <IC50_uM>
0.02

> <pIC50>
7.698970004

> <Activity>
1

$$$$

  SciTegic10102310092D

 23 24  0  0  0  0            999 V2000
    3.8912   -5.2570    0.0000 C   0  0
    3.8933   -3.7570    0.0000 C   0  0
    2.5951   -3.0039    0.0000 C   0  0
    2.5973   -1.5031    0.0000 N   0  0
    1.2990   -0.7500    0.0000 C   0  0
    1.2990    0.7500    0.0000 C   0  0
    2.5972    1.5031    0.0000 C   0  0
    2.5951    3.0039    0.0000 C   0  0
    3.8915    3.7585    0.0000 C   0  0
    3.8863    5.2585    0.0000 C   0  0
    5.1827    6.0130    0.0000 C   0  0
    2.5847    6.0040    0.0000 C   0  0
    1.2883    5.2495    0.0000 C   0  0
   -0.0134    5.9950    0.0000 C   0  0
    1.2934    3.7495    0.0000 C   0  0
    0.0000    1.5000    0.0000 C   0  0
   -0.0031    3.0008    0.0000 C   0  0
   -1.3032    3.7490    0.0000 C   0  0
   -1.2990    0.7500    0.0000 C   0  0
   -2.5981    1.5000    0.0000 C   0  0
   -1.2990   -0.7500    0.0000 N   0  0
    0.0000   -1.5000    0.0000 C   0  0
    0.0000   -3.0000    0.0000 O   0  0
  1  2  1  0
  2  3  1  0
  3  4  1  0
  4  5  1  0
  5  6  2  0
  6  7  1  0
  7  8  1  0
  8  9  2  0
  9 10  1  0
 10 11  1  0
 10 12  2  0
 12 13  1  0
 13 14  1  0
 13 15  2  0
 15  8  1  0
  6 16  1  0
 16 17  1  0
 17 18  1  0
 16 19  2  0
 19 20  1  0
 19 21  1  0
 21 22  1  0
 22  5  1  0
 22 23  2  0
M  END
> <Smiles>
CCCNc1c(Cc2cc(C)cc(C)c2)c(CC)c(C)[nH]c1=O

> <IC50_uM>
0.02

> <pIC50>
7.698970004

> <Activity>
1

$$$$

  SciTegic10102310092D

 34 36  0  0  0  0            999 V2000
   -1.3168   -9.7480    0.0000 C   0  0
   -1.3135   -8.2480    0.0000 O   0  0
   -0.0126   -7.4996    0.0000 C   0  0
    1.2850   -8.2520    0.0000 O   0  0
   -0.0094   -5.9988    0.0000 C   0  0
    1.2915   -5.2503    0.0000 C   0  0
    1.2948   -3.7495    0.0000 C   0  0
    2.5957   -3.0011    0.0000 C   0  0
    2.5990   -1.5003    0.0000 C   0  0
    1.3022   -0.7447    0.0000 C   0  0
    1.3037    0.7552    0.0000 C   0  0
    0.0055    1.5067    0.0000 C   0  0
    0.0072    3.0067    0.0000 C   0  0
   -1.2943    0.7581    0.0000 C   0  0
   -2.5948    1.5073    0.0000 O   0  0
   -3.8936    0.7569    0.0000 C   0  0
   -1.2960   -0.7419    0.0000 C   0  0
   -2.5950   -1.4935    0.0000 C   0  0
   -3.8945   -0.7444    0.0000 O   0  0
   -2.5946   -2.9944    0.0000 O   0  0
   -3.8929   -3.7456    0.0000 C   0  0
    0.0022   -1.4933    0.0000 C   0  0
    3.9021   -0.7556    0.0000 C   0  0
    3.9087    0.7443    0.0000 C   0  0
    5.2109    1.4887    0.0000 C   0  0
    5.2175    2.9887    0.0000 C   0  0
    6.5067    0.7331    0.0000 C   0  0
    7.9345    1.1904    0.0000 O   0  0
    8.8108   -0.0270    0.0000 C   0  0
   10.3108   -0.0335    0.0000 O   0  0
    7.9239   -1.2366    0.0000 N   0  0
    8.3811   -2.6653    0.0000 C   0  0
    6.5002   -0.7669    0.0000 C   0  0
    5.1979   -1.5113    0.0000 C   0  0
  1  2  1  0
  2  3  1  0
  3  4  2  0
  3  5  1  0
  5  6  1  0
  6  7  1  0
  7  8  1  0
  8  9  2  0
  9 10  1  0
 10 11  2  0
 11 12  1  0
 12 13  1  0
 12 14  2  0
 14 15  1  0
 15 16  1  0
 14 17  1  0
 17 18  1  0
 18 19  2  0
 18 20  1  0
 20 21  1  0
 17 22  2  0
 22 10  1  0
  9 23  1  0
 23 24  2  0
 24 25  1  0
 25 26  1  0
 25 27  2  0
 27 28  1  0
 28 29  1  0
 29 30  2  0
 29 31  1  0
 31 32  1  0
 31 33  1  0
 33 27  1  0
 33 34  2  0
 34 23  1  0
M  END
> <Smiles>
COC(=O)CCC/C=C(\c1cc(C)c(OC)c(C(=O)OC)c1)c1cc(C)c2oc(=O)n(C)c2c1

> <IC50_uM>
0.02

> <pIC50>
7.698970004

> <Activity>
1

$$$$

  SciTegic10102310092D

 29 32  0  0  0  0            999 V2000
   -0.6923   -4.0811    0.0000 C   0  0
    0.3114   -2.9665    0.0000 C   0  0
    1.8032   -3.1233    0.0000 N   0  0
    2.4133   -1.7530    0.0000 C   0  0
    3.8794   -1.4442    0.0000 C   0  0
    4.8823   -2.5608    0.0000 C   0  0
    6.3509   -2.2515    0.0000 C   0  0
    7.3538   -3.3681    0.0000 C   0  0
    8.8224   -3.0588    0.0000 C   0  0
    9.8253   -4.1753    0.0000 C   0  0
   11.2939   -3.8660    0.0000 C   0  0
   11.7596   -2.4402    0.0000 O   0  0
   12.2967   -4.9826    0.0000 C   0  0
   13.7650   -4.6756    0.0000 C   0  0
   14.7651   -5.7936    0.0000 C   0  0
   14.2969   -7.2187    0.0000 C   0  0
   12.8286   -7.5258    0.0000 C   0  0
   11.8286   -6.4078    0.0000 C   0  0
    1.2990   -0.7500    0.0000 N   0  0
    1.2990    0.7500    0.0000 N   0  0
    0.0000    1.5000    0.0000 C   0  0
    0.0000    3.0008    0.0000 N   0  0
    1.2121    3.8625    0.0000 C   0  0
    0.7463    5.2884    0.0000 C   0  0
   -0.7537    5.2860    0.0000 C   0  0
   -1.2149    3.8587    0.0000 C   0  0
   -1.2990    0.7500    0.0000 C   0  0
   -1.2990   -0.7500    0.0000 C   0  0
    0.0000   -1.5000    0.0000 C   0  0
  1  2  1  0
  2  3  1  0
  3  4  2  0
  4  5  1  0
  5  6  1  0
  6  7  1  0
  7  8  1  0
  8  9  1  0
  9 10  1  0
 10 11  1  0
 11 12  2  0
 11 13  1  0
 13 14  2  0
 14 15  1  0
 15 16  2  0
 16 17  1  0
 17 18  2  0
 18 13  1  0
  4 19  1  0
 19 20  1  0
 20 21  2  0
 21 22  1  0
 22 23  1  0
 23 24  2  0
 24 25  1  0
 25 26  2  0
 26 22  1  0
 21 27  1  0
 27 28  2  0
 28 29  1  0
 29  2  2  0
 29 19  1  0
M  END
> <Smiles>
Cc1nc(CCCCCCC(=O)c2ccccc2)n2nc(-n3cccc3)ccc12

> <IC50_uM>
0.02

> <pIC50>
7.698970004

> <Activity>
1

$$$$

  SciTegic10102310092D

 30 33  0  0  0  0            999 V2000
    1.8073   -5.7196    0.0000 O   0  0
    2.5551   -4.4192    0.0000 C   0  0
    4.0559   -4.4171    0.0000 N   0  0
    4.8090   -5.7153    0.0000 C   0  0
    6.3098   -5.7131    0.0000 C   0  0
    7.0644   -7.0095    0.0000 C   0  0
    6.3190   -8.3112    0.0000 F   0  0
    8.5644   -7.0043    0.0000 C   0  0
    9.3099   -5.7027    0.0000 C   0  0
    8.5554   -4.4062    0.0000 C   0  0
    7.0554   -4.4114    0.0000 C   0  0
    6.3009   -3.1150    0.0000 Cl  0  0
    1.8032   -3.1233    0.0000 C   0  0
    2.4133   -1.7530    0.0000 N   0  0
    1.2990   -0.7500    0.0000 C   0  0
    1.2990    0.7500    0.0000 C   0  0
    0.0000    1.5000    0.0000 C   0  0
   -1.2990    0.7500    0.0000 C   0  0
   -2.5981    1.5000    0.0000 Br  0  0
   -1.2990   -0.7500    0.0000 C   0  0
    0.0000   -1.5000    0.0000 C   0  0
    0.3114   -2.9665    0.0000 C   0  0
   -0.6913   -4.0797    0.0000 S   0  0
   -0.2276   -5.5062    0.0000 O   0  0
    0.7759   -4.3916    0.0000 O   0  0
   -2.1595   -3.7683    0.0000 N   0  0
   -3.2523   -4.7770    0.0000 C   0  0
   -4.5516   -4.0276    0.0000 C   0  0
   -4.2404   -2.5602    0.0000 C   0  0
   -2.7487   -2.4028    0.0000 C   0  0
  1  2  2  0
  2  3  1  0
  3  4  1  0
  4  5  1  0
  5  6  2  0
  6  7  1  0
  6  8  1  0
  8  9  2  0
  9 10  1  0
 10 11  2  0
 11  5  1  0
 11 12  1  0
  2 13  1  0
 13 14  1  0
 14 15  1  0
 15 16  2  0
 16 17  1  0
 17 18  2  0
 18 19  1  0
 18 20  1  0
 20 21  2  0
 21 15  1  0
 21 22  1  0
 22 13  2  0
 22 23  1  0
 23 24  2  0
 23 25  2  0
 23 26  1  0
 26 27  1  0
 27 28  1  0
 28 29  1  0
 29 30  1  0
 30 26  1  0
M  END
> <Smiles>
O=C(NCc1c(F)cccc1Cl)c1[nH]c2ccc(Br)cc2c1S(=O)(=O)N1CCCC1

> <IC50_uM>
0.02

> <pIC50>
7.698970004

> <Activity>
1

$$$$

  SciTegic10102310092D

 31 34  0  0  0  0            999 V2000
    4.8689    3.5238    0.0000 O   0  0
    5.9880    2.5249    0.0000 C   0  0
    5.6819    1.0557    0.0000 C   0  0
    4.2567    0.5852    0.0000 S   0  0
    3.9511   -0.8815    0.0000 C   0  0
    4.9531   -1.9978    0.0000 N   0  0
    4.2010   -3.2956    0.0000 N   0  0
    2.7343   -2.9815    0.0000 N   0  0
    2.5987   -1.5004    0.0000 N   0  0
    1.2990   -0.7500    0.0000 C   0  0
    1.2990    0.7500    0.0000 C   0  0
    0.0000    1.5000    0.0000 C   0  0
   -1.2990    0.7500    0.0000 C   0  0
   -2.5987    1.5004    0.0000 C   0  0
   -3.2716    2.7526    0.0000 C   0  0
   -4.0195    1.4524    0.0000 C   0  0
   -1.2990   -0.7500    0.0000 C   0  0
    0.0000   -1.5000    0.0000 C   0  0
    0.0000   -3.0000    0.0000 Cl  0  0
    7.4132    2.9954    0.0000 N   0  0
    7.7193    4.4647    0.0000 C   0  0
    6.5985    5.4617    0.0000 C   0  0
    6.9014    6.9308    0.0000 C   0  0
    8.3252    7.4030    0.0000 C   0  0
    8.6283    8.8728    0.0000 C   0  0
    8.9314   10.3427    0.0000 C   0  0
    9.2345   11.8126    0.0000 C   0  0
    8.1143   12.8103    0.0000 O   0  0
    9.4460    6.4061    0.0000 C   0  0
    9.1430    4.9370    0.0000 C   0  0
   10.2639    3.9401    0.0000 Cl  0  0
  1  2  2  0
  2  3  1  0
  3  4  1  0
  4  5  1  0
  5  6  2  0
  6  7  1  0
  7  8  2  0
  8  9  1  0
  9  5  1  0
  9 10  1  0
 10 11  2  0
 11 12  1  0
 12 13  2  0
 13 14  1  0
 14 15  1  0
 15 16  1  0
 16 14  1  0
 13 17  1  0
 17 18  2  0
 18 10  1  0
 18 19  1  0
  2 20  1  0
 20 21  1  0
 21 22  2  0
 22 23  1  0
 23 24  2  0
 24 25  1  0
 25 26  3  0
 26 27  1  0
 27 28  1  0
 24 29  1  0
 29 30  2  0
 30 21  1  0
 30 31  1  0
M  END
> <Smiles>
O=C(CSc1nnnn1-c1ccc(C2CC2)cc1Cl)Nc1ccc(C#CCO)cc1Cl

> <IC50_uM>
0.02

> <pIC50>
7.698970004

> <Activity>
1

$$$$

  SciTegic10102310092D

 19 20  0  0  0  0            999 V2000
    2.5909   -6.0056    0.0000 S   0  0
    3.8912   -5.2578    0.0000 C   0  0
    3.8933   -3.7570    0.0000 N   0  0
    2.5951   -3.0039    0.0000 C   0  0
    2.5973   -1.5031    0.0000 C   0  0
    1.2990   -0.7500    0.0000 C   0  0
    1.2990    0.7500    0.0000 C   0  0
    0.0000    1.5000    0.0000 C   0  0
   -1.2990    0.7500    0.0000 C   0  0
   -1.2990   -0.7500    0.0000 C   0  0
    0.0000   -1.5000    0.0000 N   0  0
    5.1894   -6.0109    0.0000 N   0  0
    5.1873   -7.5117    0.0000 C   0  0
    6.4837   -8.2663    0.0000 C   0  0
    6.4785   -9.7663    0.0000 C   0  0
    5.1769  -10.5118    0.0000 C   0  0
    5.1717  -12.0118    0.0000 Br  0  0
    3.8804   -9.7573    0.0000 C   0  0
    3.8856   -8.2573    0.0000 N   0  0
  1  2  2  0
  2  3  1  0
  3  4  1  0
  4  5  1  0
  5  6  1  0
  6  7  2  0
  7  8  1  0
  8  9  2  0
  9 10  1  0
 10 11  2  0
 11  6  1  0
  2 12  1  0
 12 13  1  0
 13 14  2  0
 14 15  1  0
 15 16  2  0
 16 17  1  0
 16 18  1  0
 18 19  2  0
 19 13  1  0
M  END
> <Smiles>
S=C(NCCc1ccccn1)Nc1ccc(Br)cn1

> <IC50_uM>
0.02

> <pIC50>
7.698970004

> <Activity>
1

$$$$

  SciTegic10102310092D

 23 25  0  0  0  0            999 V2000
    2.5981   -1.5000    0.0000 O   0  0
    1.2990   -0.7500    0.0000 C   0  0
    1.2990    0.7500    0.0000 C   0  0
    0.0000    1.5000    0.0000 C   0  0
   -0.0031    3.0008    0.0000 C   0  0
   -1.3039    3.7494    0.0000 C   0  0
   -1.3092    5.2494    0.0000 C   0  0
   -2.6108    5.9949    0.0000 C   0  0
   -3.9073    5.2404    0.0000 C   0  0
   -3.9021    3.7404    0.0000 C   0  0
   -5.1992    2.9855    0.0000 C   0  0
   -6.5021    3.7289    0.0000 C   0  0
   -7.7973    2.9724    0.0000 C   0  0
   -7.7897    1.4724    0.0000 C   0  0
   -6.4869    0.7290    0.0000 C   0  0
   -6.4793   -0.7710    0.0000 Cl  0  0
   -5.1917    1.4855    0.0000 C   0  0
   -2.6005    2.9949    0.0000 C   0  0
   -1.2990    0.7500    0.0000 N   0  0
   -1.2990   -0.7500    0.0000 C   0  0
   -2.5981   -1.5000    0.0000 O   0  0
    0.0000   -1.5000    0.0000 N   0  0
    0.0000   -3.0000    0.0000 O   0  0
  1  2  2  0
  2  3  1  0
  3  4  2  0
  4  5  1  0
  5  6  1  0
  6  7  2  0
  7  8  1  0
  8  9  2  0
  9 10  1  0
 10 11  1  0
 11 12  2  0
 12 13  1  0
 13 14  2  0
 14 15  1  0
 15 16  1  0
 15 17  2  0
 17 11  1  0
 10 18  2  0
 18  6  1  0
  4 19  1  0
 19 20  1  0
 20 21  2  0
 20 22  1  0
 22  2  1  0
 22 23  1  0
M  END
> <Smiles>
O=c1cc(Cc2cccc(-c3cccc(Cl)c3)c2)[nH]c(=O)n1O

> <IC50_uM>
0.02

> <pIC50>
7.698970004

> <Activity>
1

$$$$

  SciTegic10102310092D

 24 26  0  0  0  0            999 V2000
    2.5981   -1.5000    0.0000 C   0  0
    1.2990   -0.7500    0.0000 C   0  0
    1.2990    0.7500    0.0000 C   0  0
    0.0000    1.5000    0.0000 C   0  0
   -1.2990    0.7500    0.0000 C   0  0
   -2.5987    1.5004    0.0000 C   0  0
   -2.6012    3.0004    0.0000 C   0  0
   -3.9015    3.7484    0.0000 C   0  0
   -5.1993    2.9963    0.0000 C   0  0
   -6.5018    3.7420    0.0000 C   0  0
   -6.5068    5.2419    0.0000 O   0  0
   -7.7993    2.9876    0.0000 C   0  0
   -9.1021    3.7310    0.0000 C   0  0
  -10.3974    2.9744    0.0000 C   0  0
  -11.7002    3.7179    0.0000 O   0  0
  -10.3898    1.4745    0.0000 N   0  0
  -11.6850    0.7179    0.0000 O   0  0
   -9.0870    0.7310    0.0000 C   0  0
   -9.0794   -0.7689    0.0000 O   0  0
   -7.7918    1.4876    0.0000 N   0  0
   -5.1969    1.4963    0.0000 C   0  0
   -3.8967    0.7484    0.0000 C   0  0
   -1.2990   -0.7500    0.0000 C   0  0
    0.0000   -1.5000    0.0000 C   0  0
  1  2  1  0
  2  3  2  0
  3  4  1  0
  4  5  2  0
  5  6  1  0
  6  7  2  0
  7  8  1  0
  8  9  2  0
  9 10  1  0
 10 11  2  0
 10 12  1  0
 12 13  2  0
 13 14  1  0
 14 15  2  0
 14 16  1  0
 16 17  1  0
 16 18  1  0
 18 19  2  0
 18 20  1  0
 20 12  1  0
  9 21  1  0
 21 22  2  0
 22  6  1  0
  5 23  1  0
 23 24  2  0
 24  2  1  0
M  END
> <Smiles>
Cc1ccc(-c2ccc(C(=O)c3cc(=O)n(O)c(=O)[nH]3)cc2)cc1

> <IC50_uM>
0.021

> <pIC50>
7.677780705

> <Activity>
1

$$$$

  SciTegic10102310092D

 37 40  0  0  0  0            999 V2000
    2.5981   -1.5000    0.0000 C   0  0
    1.2990   -0.7500    0.0000 C   0  0
    1.2990    0.7500    0.0000 C   0  0
    0.0000    1.5000    0.0000 C   0  0
    0.0000    3.0008    0.0000 C   0  0
    0.0000    4.5008    0.0000 N   0  0
   -1.2990    0.7500    0.0000 C   0  0
   -1.2990   -0.7500    0.0000 C   0  0
   -2.5981   -1.5000    0.0000 C   0  0
    0.0000   -1.5000    0.0000 C   0  0
    0.0031   -3.0008    0.0000 O   0  0
    1.3039   -3.7494    0.0000 C   0  0
    2.6005   -2.9949    0.0000 N   0  0
    3.9021   -3.7404    0.0000 C   0  0
    5.2008   -2.9882    0.0000 N   0  0
    6.5021   -3.7360    0.0000 C   0  0
    7.8012   -2.9860    0.0000 C   0  0
    9.1002   -3.7360    0.0000 C   0  0
    9.1002   -5.2360    0.0000 N   0  0
   10.3984   -5.9891    0.0000 C   0  0
   10.3963   -7.4900    0.0000 C   0  0
    9.0946   -8.2356    0.0000 C   0  0
    9.0894   -9.7355    0.0000 C   0  0
   10.3859  -10.4900    0.0000 C   0  0
   10.3807  -11.9908    0.0000 S   0  0
   11.6774  -12.7449    0.0000 N   0  0
    9.0795  -12.7372    0.0000 O   0  0
   10.3762  -13.4908    0.0000 O   0  0
   11.6875   -9.7445    0.0000 C   0  0
   11.6927   -8.2445    0.0000 C   0  0
   12.9943   -7.4991    0.0000 Cl  0  0
    7.8012   -5.9860    0.0000 C   0  0
    6.5021   -5.2360    0.0000 C   0  0
    3.9073   -5.2404    0.0000 N   0  0
    2.6108   -5.9949    0.0000 C   0  0
    1.3092   -5.2494    0.0000 C   0  0
    0.0128   -6.0039    0.0000 Br  0  0
  1  2  1  0
  2  3  2  0
  3  4  1  0
  4  5  1  0
  5  6  3  0
  4  7  2  0
  7  8  1  0
  8  9  1  0
  8 10  2  0
 10  2  1  0
 10 11  1  0
 11 12  1  0
 12 13  2  0
 13 14  1  0
 14 15  1  0
 15 16  1  0
 16 17  1  0
 17 18  1  0
 18 19  1  0
 19 20  1  0
 20 21  1  0
 21 22  2  0
 22 23  1  0
 23 24  2  0
 24 25  1  0
 25 26  1  0
 25 27  2  0
 25 28  2  0
 24 29  1  0
 29 30  2  0
 30 21  1  0
 30 31  1  0
 19 32  1  0
 32 33  1  0
 33 16  1  0
 14 34  2  0
 34 35  1  0
 35 36  2  0
 36 12  1  0
 36 37  1  0
M  END
> <Smiles>
Cc1cc(C#N)cc(C)c1Oc1nc(NC2CCN(Cc3ccc(S(N)(=O)=O)cc3Cl)CC2)ncc1Br

> <IC50_uM>
0.021

> <pIC50>
7.677780705

> <Activity>
1

$$$$

  SciTegic10102310092D

 31 34  0  0  0  0            999 V2000
    3.1676   -7.5606    0.0000 C   0  0
    1.7006   -7.2475    0.0000 C   0  0
    0.6960   -8.3614    0.0000 C   0  0
   -0.7710   -8.0483    0.0000 C   0  0
   -1.7756   -9.1622    0.0000 C   0  0
   -1.2333   -6.6213    0.0000 C   0  0
   -0.2287   -5.5075    0.0000 C   0  0
   -0.6913   -4.0797    0.0000 S   0  0
   -2.1584   -3.7671    0.0000 O   0  0
   -1.6957   -5.1937    0.0000 O   0  0
    0.3114   -2.9665    0.0000 C   0  0
    1.8032   -3.1233    0.0000 C   0  0
    2.5551   -4.4192    0.0000 C   0  0
    1.8074   -5.7196    0.0000 O   0  0
    4.0559   -4.4171    0.0000 N   0  0
    4.8090   -5.7153    0.0000 C   0  0
    6.3098   -5.7131    0.0000 C   0  0
    7.0644   -7.0095    0.0000 C   0  0
    8.5644   -7.0043    0.0000 C   0  0
    9.3099   -5.7026    0.0000 C   0  0
    8.5554   -4.4062    0.0000 C   0  0
    7.0554   -4.4114    0.0000 C   0  0
    2.4133   -1.7530    0.0000 N   0  0
    1.2990   -0.7500    0.0000 C   0  0
    1.2990    0.7500    0.0000 C   0  0
    0.0000    1.5000    0.0000 C   0  0
   -1.2990    0.7500    0.0000 C   0  0
   -2.5981    1.5000    0.0000 Cl  0  0
   -1.2990   -0.7500    0.0000 C   0  0
    0.0000   -1.5000    0.0000 C   0  0
    1.2383   -5.8206    0.0000 C   0  0
  1  2  1  0
  2  3  2  0
  3  4  1  0
  4  5  1  0
  4  6  2  0
  6  7  1  0
  7  8  1  0
  8  9  2  0
  8 10  2  0
  8 11  1  0
 11 12  2  0
 12 13  1  0
 13 14  2  0
 13 15  1  0
 15 16  1  0
 16 17  1  0
 17 18  2  0
 18 19  1  0
 19 20  2  0
 20 21  1  0
 21 22  2  0
 22 17  1  0
 12 23  1  0
 23 24  1  0
 24 25  2  0
 25 26  1  0
 26 27  2  0
 27 28  1  0
 27 29  1  0
 29 30  2  0
 30 11  1  0
 30 24  1  0
  7 31  2  0
 31  2  1  0
M  END
> <Smiles>
Cc1cc(C)cc(S(=O)(=O)c2c(C(=O)NCc3ccccc3)[nH]c3ccc(Cl)cc23)c1

> <IC50_uM>
0.021

> <pIC50>
7.677780705

> <Activity>
1

$$$$

  SciTegic10102310092D

 35 38  0  0  0  0            999 V2000
    3.8983   -0.7459    0.0000 C   0  0
    2.6003   -1.4977    0.0000 O   0  0
    1.2990   -0.7500    0.0000 C   0  0
    1.2990    0.7500    0.0000 C   0  0
    0.0000    1.5000    0.0000 C   0  0
    0.0000    3.0008    0.0000 C   0  0
    0.0000    4.5008    0.0000 N   0  0
   -1.2990    0.7500    0.0000 C   0  0
   -1.2990   -0.7500    0.0000 C   0  0
   -2.5981   -1.5000    0.0000 C   0  0
    0.0000   -1.5000    0.0000 C   0  0
    0.0031   -3.0008    0.0000 O   0  0
    1.3039   -3.7494    0.0000 C   0  0
    2.6005   -2.9949    0.0000 N   0  0
    3.9021   -3.7404    0.0000 C   0  0
    5.2008   -2.9882    0.0000 N   0  0
    6.5021   -3.7360    0.0000 C   0  0
    7.8012   -2.9860    0.0000 C   0  0
    9.1002   -3.7360    0.0000 C   0  0
    9.1002   -5.2360    0.0000 N   0  0
   10.3999   -5.9864    0.0000 C   0  0
   11.7002   -5.2385    0.0000 C   0  0
   12.9981   -5.9906    0.0000 C   0  0
   12.9957   -7.4906    0.0000 C   0  0
   11.6954   -8.2385    0.0000 C   0  0
   11.6900   -9.7394    0.0000 C   0  0
   12.9865  -10.4937    0.0000 N   0  0
   10.3887  -10.4854    0.0000 O   0  0
   10.3976   -7.4865    0.0000 C   0  0
    7.8012   -5.9860    0.0000 C   0  0
    6.5021   -5.2360    0.0000 C   0  0
    3.9073   -5.2404    0.0000 N   0  0
    2.6108   -5.9949    0.0000 C   0  0
    1.3092   -5.2494    0.0000 C   0  0
    0.0128   -6.0039    0.0000 C   0  0
  1  2  1  0
  2  3  1  0
  3  4  2  0
  4  5  1  0
  5  6  1  0
  6  7  3  0
  5  8  2  0
  8  9  1  0
  9 10  1  0
  9 11  2  0
 11  3  1  0
 11 12  1  0
 12 13  1  0
 13 14  2  0
 14 15  1  0
 15 16  1  0
 16 17  1  0
 17 18  1  0
 18 19  1  0
 19 20  1  0
 20 21  1  0
 21 22  2  0
 22 23  1  0
 23 24  2  0
 24 25  1  0
 25 26  1  0
 26 27  1  0
 26 28  2  0
 25 29  2  0
 29 21  1  0
 20 30  1  0
 30 31  1  0
 31 17  1  0
 15 32  2  0
 32 33  1  0
 33 34  2  0
 34 13  1  0
 34 35  1  0
M  END
> <Smiles>
COc1cc(C#N)cc(C)c1Oc1nc(NC2CCN(c3cccc(C(N)=O)c3)CC2)ncc1C

> <IC50_uM>
0.021

> <pIC50>
7.677780705

> <Activity>
1

$$$$

  SciTegic10102310092D

 37 41  0  0  0  0            999 V2000
    2.5923    1.5001    0.0000 C   0  0
    3.8939    0.7546    0.0000 C   0  0
    5.1903    1.5091    0.0000 C   0  0
    6.4920    0.7636    0.0000 C   0  0
    7.7907    1.5158    0.0000 C   0  0
    9.0920    0.7680    0.0000 C   0  0
   10.3907    1.5203    0.0000 C   0  0
   11.6886    2.2721    0.0000 N   0  0
    6.4972   -0.7364    0.0000 C   0  0
    5.2007   -1.4909    0.0000 C   0  0
    5.2059   -2.9909    0.0000 C   0  0
    3.8990   -0.7455    0.0000 C   0  0
    2.6003   -1.4977    0.0000 O   0  0
    1.2990   -0.7500    0.0000 C   0  0
    1.2990    0.7500    0.0000 N   0  0
    0.0000    1.5000    0.0000 C   0  0
   -0.0031    3.0008    0.0000 N   0  0
   -1.3039    3.7494    0.0000 C   0  0
   -1.3092    5.2494    0.0000 C   0  0
   -2.6108    5.9949    0.0000 C   0  0
   -3.9073    5.2404    0.0000 N   0  0
   -5.2112    5.9836    0.0000 C   0  0
   -6.5072    5.2269    0.0000 C   0  0
   -7.8115    5.9678    0.0000 C   0  0
   -9.1053    5.2088    0.0000 C   0  0
   -9.0949    3.7089    0.0000 C   0  0
   -7.7907    2.9679    0.0000 C   0  0
   -7.7803    1.4679    0.0000 F   0  0
   -6.4969    3.7269    0.0000 C   0  0
   -3.9021    3.7404    0.0000 C   0  0
   -2.6005    2.9949    0.0000 C   0  0
   -1.2990    0.7500    0.0000 N   0  0
   -1.2990   -0.7500    0.0000 C   0  0
   -2.4133   -1.7530    0.0000 C   0  0
   -1.8032   -3.1233    0.0000 C   0  0
   -0.3114   -2.9665    0.0000 S   0  0
    0.0000   -1.5000    0.0000 C   0  0
  1  2  1  0
  2  3  2  0
  3  4  1  0
  4  5  1  0
  5  6  2  0
  6  7  1  0
  7  8  3  0
  4  9  2  0
  9 10  1  0
 10 11  1  0
 10 12  2  0
 12  2  1  0
 12 13  1  0
 13 14  1  0
 14 15  2  0
 15 16  1  0
 16 17  1  0
 17 18  1  0
 18 19  1  0
 19 20  1  0
 20 21  1  0
 21 22  1  0
 22 23  1  0
 23 24  2  0
 24 25  1  0
 25 26  2  0
 26 27  1  0
 27 28  1  0
 27 29  2  0
 29 23  1  0
 21 30  1  0
 30 31  1  0
 31 18  1  0
 16 32  2  0
 32 33  1  0
 33 34  1  0
 34 35  2  0
 35 36  1  0
 36 37  1  0
 37 14  1  0
 37 33  2  0
M  END
> <Smiles>
Cc1cc(/C=C/C#N)cc(C)c1Oc1nc(NC2CCN(Cc3cccc(F)c3)CC2)nc2ccsc12

> <IC50_uM>
0.0211

> <pIC50>
7.675717545

> <Activity>
1

$$$$

  SciTegic10102310092D

 39 42  0  0  0  0            999 V2000
   11.6472   -1.8255    0.0000 C   0  0
   10.1554   -1.9824    0.0000 C   0  0
    9.4054   -3.2814    0.0000 N   0  0
    7.9382   -2.9695    0.0000 N   0  0
    7.8003   -1.4887    0.0000 C   0  0
    6.4990   -0.7409    0.0000 O   0  0
    5.2003   -1.4932    0.0000 C   0  0
    3.8990   -0.7455    0.0000 C   0  0
    3.8964    0.7545    0.0000 O   0  0
    2.6003   -1.4977    0.0000 N   0  0
    1.2990   -0.7500    0.0000 C   0  0
    1.2990    0.7500    0.0000 C   0  0
    0.0000    1.5000    0.0000 C   0  0
   -1.2990    0.7500    0.0000 C   0  0
   -2.5987    1.5004    0.0000 C   0  0
   -2.6012    3.0004    0.0000 C   0  0
   -3.9015    3.7484    0.0000 C   0  0
   -5.1993    2.9963    0.0000 C   0  0
   -6.5018    3.7420    0.0000 C   0  0
   -7.7993    2.9876    0.0000 C   0  0
   -9.1010    3.7329    0.0000 O   0  0
   -7.7943    1.4876    0.0000 O   0  0
   -5.1969    1.4963    0.0000 C   0  0
   -3.8967    0.7484    0.0000 C   0  0
   -1.2990   -0.7500    0.0000 C   0  0
    0.0000   -1.5000    0.0000 C   0  0
    0.0000   -3.0000    0.0000 Cl  0  0
    9.1517   -0.8676    0.0000 C   0  0
    9.4550    0.6021    0.0000 C   0  0
   10.9147    0.9552    0.0000 C   0  0
   11.3335    2.3955    0.0000 C   0  0
   10.2956    3.4784    0.0000 C   0  0
   10.7146    4.9195    0.0000 C   0  0
   12.1712    5.2779    0.0000 C   0  0
    9.6763    6.0021    0.0000 C   0  0
   11.1327    6.3601    0.0000 C   0  0
    8.8388    3.1209    0.0000 C   0  0
    8.4200    1.6806    0.0000 C   0  0
    6.9633    1.3227    0.0000 Cl  0  0
  1  2  1  0
  2  3  1  0
  3  4  1  0
  4  5  2  0
  5  6  1  0
  6  7  1  0
  7  8  1  0
  8  9  2  0
  8 10  1  0
 10 11  1  0
 11 12  2  0
 12 13  1  0
 13 14  2  0
 14 15  1  0
 15 16  2  0
 16 17  1  0
 17 18  2  0
 18 19  1  0
 19 20  1  0
 20 21  2  0
 20 22  1  0
 18 23  1  0
 23 24  2  0
 24 15  1  0
 14 25  1  0
 25 26  2  0
 26 11  1  0
 26 27  1  0
 28  5  1  4
 28  2  2  0
 28 29  1  0
 29 30  2  0
 30 31  1  0
 31 32  2  0
 32 33  1  0
 33 34  1  0
 33 35  1  0
 33 36  1  0
 32 37  1  0
 37 38  2  0
 38 29  1  0
 38 39  1  0
M  END
> <Smiles>
Cc1[nH]nc(OCC(=O)Nc2ccc(-c3ccc(CC(=O)O)cc3)cc2Cl)c1-c1ccc(C(C)(C)C)cc1Cl

> <IC50_uM>
0.022

> <pIC50>
7.657577319

> <Activity>
1

$$$$

  SciTegic10102310092D

 29 32  0  0  0  0            999 V2000
   -6.0840   -4.2660    0.0000 N   0  0
   -5.6208   -5.6927    0.0000 C   0  0
   -5.1572   -7.1201    0.0000 C   0  0
   -6.1611   -8.2347    0.0000 C   0  0
   -5.6979   -9.6613    0.0000 C   0  0
   -6.7018  -10.7759    0.0000 Cl  0  0
   -4.2307   -9.9735    0.0000 C   0  0
   -3.2267   -8.8590    0.0000 C   0  0
   -1.7581   -9.1683    0.0000 O   0  0
   -0.7552   -8.0517    0.0000 C   0  0
    0.7130   -8.3588    0.0000 C   0  0
    1.1812   -9.7838    0.0000 Br  0  0
    1.7131   -7.2408    0.0000 C   0  0
    1.2449   -5.8157    0.0000 C   0  0
   -0.2234   -5.5086    0.0000 C   0  0
   -0.6890   -4.0818    0.0000 C   0  0
    0.3114   -2.9665    0.0000 C   0  0
    1.8032   -3.1233    0.0000 N   0  0
    2.4133   -1.7530    0.0000 N   0  0
    1.2990   -0.7500    0.0000 C   0  0
    1.2990    0.7500    0.0000 C   0  0
    2.5981    1.5000    0.0000 N   0  0
    0.0000    1.5000    0.0000 C   0  0
   -1.2990    0.7500    0.0000 C   0  0
   -1.2990   -0.7500    0.0000 C   0  0
    0.0000   -1.5000    0.0000 C   0  0
   -1.2234   -6.6267    0.0000 C   0  0
   -2.6917   -6.3197    0.0000 F   0  0
   -3.6901   -7.4323    0.0000 C   0  0
  1  2  3  0
  2  3  1  0
  3  4  2  0
  4  5  1  0
  5  6  1  0
  5  7  2  0
  7  8  1  0
  8  9  1  0
  9 10  1  0
 10 11  2  0
 11 12  1  0
 11 13  1  0
 13 14  2  0
 14 15  1  0
 15 16  1  0
 16 17  1  0
 17 18  2  0
 18 19  1  0
 19 20  1  0
 20 21  2  0
 21 22  1  0
 21 23  1  0
 23 24  2  0
 24 25  1  0
 25 26  2  0
 26 17  1  0
 26 20  1  0
 15 27  2  0
 27 10  1  0
 27 28  1  0
  8 29  2  0
 29  3  1  0
M  END
> <Smiles>
N#Cc1cc(Cl)cc(Oc2c(Br)ccc(Cc3n[nH]c4c(N)cccc34)c2F)c1

> <IC50_uM>
0.022

> <pIC50>
7.657577319

> <Activity>
1

$$$$

  SciTegic10102310092D

 36 39  0  0  0  0            999 V2000
    2.5981   -1.5000    0.0000 C   0  0
    1.2990   -0.7500    0.0000 C   0  0
    1.2990    0.7500    0.0000 C   0  0
    0.0000    1.5000    0.0000 C   0  0
   -1.2990    0.7500    0.0000 C   0  0
   -2.5987    1.5004    0.0000 N   0  0
   -3.9492    0.8772    0.0000 N   0  0
   -4.9546    1.9903    0.0000 N   0  0
   -4.2067    3.2905    0.0000 N   0  0
   -2.7390    2.9810    0.0000 C   0  0
   -1.6216    3.9790    0.0000 S   0  0
   -1.9268    5.4485    0.0000 C   0  0
   -0.8074    6.4482    0.0000 C   0  0
    0.6172    5.9785    0.0000 O   0  0
   -1.1126    7.9177    0.0000 N   0  0
    0.0068    8.9174    0.0000 C   0  0
    1.4306    8.4453    0.0000 C   0  0
    2.5514    9.4422    0.0000 C   0  0
    2.2485   10.9113    0.0000 C   0  0
    3.3698   11.9087    0.0000 C   0  0
    4.7944   11.4389    0.0000 C   0  0
    5.9136   12.4375    0.0000 C   0  0
    5.6083   13.9061    0.0000 C   0  0
    6.7261   14.9077    0.0000 O   0  0
    6.4186   16.3767    0.0000 C   0  0
    7.5363   17.3782    0.0000 C   0  0
    7.2290   18.8464    0.0000 O   0  0
    8.9616   16.9108    0.0000 O   0  0
    4.1839   14.3761    0.0000 C   0  0
    3.0646   13.3774    0.0000 C   0  0
    0.8247   11.3835    0.0000 C   0  0
   -0.2961   10.3866    0.0000 C   0  0
   -1.7198   10.8588    0.0000 Cl  0  0
   -1.2990   -0.7500    0.0000 C   0  0
   -2.5981   -1.5000    0.0000 Cl  0  0
    0.0000   -1.5000    0.0000 C   0  0
  1  2  1  0
  2  3  2  0
  3  4  1  0
  4  5  2  0
  5  6  1  0
  6  7  1  0
  7  8  2  0
  8  9  1  0
  9 10  2  0
 10  6  1  0
 10 11  1  0
 11 12  1  0
 12 13  1  0
 13 14  2  0
 13 15  1  0
 15 16  1  0
 16 17  2  0
 17 18  1  0
 18 19  2  0
 19 20  1  0
 20 21  2  0
 21 22  1  0
 22 23  2  0
 23 24  1  0
 24 25  1  0
 25 26  1  0
 26 27  2  0
 26 28  1  0
 23 29  1  0
 29 30  2  0
 30 20  1  0
 19 31  1  0
 31 32  2  0
 32 16  1  0
 32 33  1  0
  5 34  1  0
 34 35  1  0
 34 36  2  0
 36  2  1  0
M  END
> <Smiles>
Cc1ccc(-n2nnnc2SCC(=O)Nc2ccc(-c3ccc(OCC(=O)O)cc3)cc2Cl)c(Cl)c1

> <IC50_uM>
0.022

> <pIC50>
7.657577319

> <Activity>
1

$$$$

  SciTegic10102310092D

 23 25  0  0  0  0            999 V2000
    3.8976   -0.7553    0.0000 O   0  0
    2.5973   -1.5031    0.0000 C   0  0
    1.2990   -0.7500    0.0000 C   0  0
    1.2990    0.7500    0.0000 C   0  0
    0.0000    1.5000    0.0000 C   0  0
   -1.2990    0.7500    0.0000 C   0  0
   -2.5987    1.5004    0.0000 C   0  0
   -2.6012    3.0004    0.0000 C   0  0
   -3.9015    3.7484    0.0000 C   0  0
   -5.1993    2.9963    0.0000 C   0  0
   -5.1969    1.4963    0.0000 C   0  0
   -3.8967    0.7484    0.0000 C   0  0
   -1.2990   -0.7500    0.0000 C   0  0
    0.0000   -1.5000    0.0000 C   0  0
    2.5951   -3.0039    0.0000 C   0  0
    3.8915   -3.7585    0.0000 C   0  0
    3.8864   -5.2585    0.0000 C   0  0
    5.1828   -6.0130    0.0000 O   0  0
    2.5847   -6.0040    0.0000 N   0  0
    2.5795   -7.5040    0.0000 O   0  0
    1.2883   -5.2495    0.0000 C   0  0
   -0.0133   -5.9950    0.0000 O   0  0
    1.2935   -3.7495    0.0000 N   0  0
  1  2  2  0
  2  3  1  0
  3  4  2  0
  4  5  1  0
  5  6  2  0
  6  7  1  0
  7  8  2  0
  8  9  1  0
  9 10  2  0
 10 11  1  0
 11 12  2  0
 12  7  1  0
  6 13  1  0
 13 14  2  0
 14  3  1  0
  2 15  1  0
 15 16  2  0
 16 17  1  0
 17 18  2  0
 17 19  1  0
 19 20  1  0
 19 21  1  0
 21 22  2  0
 21 23  1  0
 23 15  1  0
M  END
> <Smiles>
O=C(c1ccc(-c2ccccc2)cc1)c1cc(=O)n(O)c(=O)[nH]1

> <IC50_uM>
0.022

> <pIC50>
7.657577319

> <Activity>
1

$$$$

  SciTegic10102310092D

 27 30  0  0  0  0            999 V2000
    2.2393   -0.8531    0.0000 C   0  0
    0.7500   -1.0323    0.0000 C   0  0
    0.1196   -2.3934    0.0000 C   0  0
    1.2135    0.3943    0.0000 C   0  0
    0.0000    1.2760    0.0000 N   0  0
   -0.4623    2.7009    0.0000 C   0  0
    0.4164    3.9144    0.0000 C   0  0
   -0.1953    5.2849    0.0000 S   0  0
    0.6849    6.5005    0.0000 C   0  0
    0.0732    7.8709    0.0000 N   0  0
   -1.4195    8.0274    0.0000 C   0  0
   -2.0329    9.3962    0.0000 C   0  0
   -3.5250    9.5495    0.0000 C   0  0
   -4.4039    8.3339    0.0000 C   0  0
   -3.7905    6.9650    0.0000 C   0  0
   -2.2984    6.8117    0.0000 C   0  0
    2.1780    6.3485    0.0000 N   0  0
    3.0569    7.5651    0.0000 C   0  0
    4.5495    7.4154    0.0000 C   0  0
    5.4254    8.6331    0.0000 C   0  0
    4.8088   10.0005    0.0000 C   0  0
    3.3163   10.1503    0.0000 C   0  0
    2.4404    8.9326    0.0000 C   0  0
   -1.9623    2.7008    0.0000 C   0  0
   -2.4258    1.2743    0.0000 S   0  0
   -1.2135    0.3943    0.0000 C   0  0
   -0.7500   -1.0323    0.0000 N   0  0
  1  2  1  0
  2  3  1  0
  2  4  1  0
  4  5  1  0
  5  6  1  0
  6  7  1  0
  7  8  1  0
  8  9  1  0
  9 10  2  0
 10 11  1  0
 11 12  1  0
 12 13  1  0
 13 14  1  0
 14 15  1  0
 15 16  1  0
 16 11  1  0
  9 17  1  0
 17 18  1  0
 18 19  1  0
 19 20  1  0
 20 21  1  0
 21 22  1  0
 22 23  1  0
 23 18  1  0
  6 24  2  0
 24 25  1  0
 25 26  1  0
 26  5  1  0
 26 27  2  0
 27  2  1  0
M  END
> <Smiles>
CC1(C)CN2C(CS/C(=N\C3CCCCC3)NC3CCCCC3)=CSC2=N1

> <IC50_uM>
0.022

> <pIC50>
7.657577319

> <Activity>
1

$$$$

  SciTegic10102310092D

 36 38  0  0  0  0            999 V2000
    2.5981   -1.5000    0.0000 C   0  0
    1.2990   -0.7500    0.0000 C   0  0
    1.2990    0.7500    0.0000 C   0  0
    0.0000    1.5000    0.0000 C   0  0
   -0.0031    3.0008    0.0000 C   0  0
   -1.3039    3.7494    0.0000 C   0  0
   -1.3070    5.2502    0.0000 C   0  0
   -1.3101    6.7502    0.0000 N   0  0
   -1.2990    0.7500    0.0000 C   0  0
   -1.2990   -0.7500    0.0000 C   0  0
   -2.5981   -1.5000    0.0000 C   0  0
    0.0000   -1.5000    0.0000 C   0  0
    0.0031   -3.0008    0.0000 O   0  0
    1.3039   -3.7494    0.0000 C   0  0
    2.6005   -2.9949    0.0000 C   0  0
    3.9021   -3.7404    0.0000 C   0  0
    5.1977   -2.9829    0.0000 N   0  0
    5.1904   -1.4821    0.0000 C   0  0
    6.4842   -0.7230    0.0000 C   0  0
    6.4738    0.7770    0.0000 C   0  0
    5.1696    1.5180    0.0000 C   0  0
    5.1592    3.0188    0.0000 C   0  0
    5.1488    4.5187    0.0000 N   0  0
    3.8758    0.7590    0.0000 C   0  0
    3.8861   -0.7410    0.0000 C   0  0
    3.9073   -5.2404    0.0000 C   0  0
    5.2089   -5.9859    0.0000 N   0  0
    2.6108   -5.9949    0.0000 C   0  0
    1.3092   -5.2494    0.0000 C   0  0
    0.0136   -6.0070    0.0000 C   0  0
   -1.2893   -5.2638    0.0000 O   0  0
    0.0210   -7.5078    0.0000 N   0  0
   -1.2746   -8.2655    0.0000 C   0  0
   -1.2672   -9.7663    0.0000 C   0  0
   -2.5628  -10.5239    0.0000 C   0  0
   -2.5554  -12.0239    0.0000 O   0  0
  1  2  1  0
  2  3  2  0
  3  4  1  0
  4  5  1  0
  5  6  2  0
  6  7  1  0
  7  8  3  0
  4  9  2  0
  9 10  1  0
 10 11  1  0
 10 12  2  0
 12  2  1  0
 12 13  1  0
 13 14  1  0
 14 15  2  0
 15 16  1  0
 16 17  1  0
 17 18  1  0
 18 19  2  0
 19 20  1  0
 20 21  2  0
 21 22  1  0
 22 23  3  0
 21 24  1  0
 24 25  2  0
 25 18  1  0
 16 26  2  0
 26 27  1  0
 26 28  1  0
 28 29  2  0
 29 14  1  0
 29 30  1  0
 30 31  2  0
 30 32  1  0
 32 33  1  0
 33 34  1  0
 34 35  1  0
 35 36  1  0
M  END
> <Smiles>
Cc1cc(/C=C/C#N)cc(C)c1Oc1cc(Nc2ccc(C#N)cc2)c(N)cc1C(=O)NCCCO

> <IC50_uM>
0.0228

> <pIC50>
7.642065153

> <Activity>
1

$$$$

  SciTegic10102310092D

 39 42  0  0  0  0            999 V2000
    3.8983   -0.7512    0.0000 C   0  0
    2.5988   -1.5004    0.0000 C   0  0
    2.5983   -3.0004    0.0000 C   0  0
    3.8975   -2.2510    0.0000 C   0  0
    1.2990   -0.7500    0.0000 C   0  0
    1.2990    0.7500    0.0000 C   0  0
    0.0000    1.5000    0.0000 C   0  0
   -1.2990    0.7500    0.0000 C   0  0
   -2.5987    1.5004    0.0000 N   0  0
   -3.9492    0.8772    0.0000 N   0  0
   -4.9546    1.9903    0.0000 N   0  0
   -4.2067    3.2905    0.0000 N   0  0
   -2.7390    2.9810    0.0000 C   0  0
   -1.6216    3.9790    0.0000 S   0  0
   -1.9268    5.4485    0.0000 C   0  0
   -0.8074    6.4482    0.0000 C   0  0
    0.6172    5.9785    0.0000 O   0  0
   -1.1126    7.9177    0.0000 N   0  0
    0.0068    8.9174    0.0000 C   0  0
    1.4306    8.4453    0.0000 C   0  0
    2.5514    9.4422    0.0000 C   0  0
    2.2485   10.9113    0.0000 C   0  0
    3.3698   11.9087    0.0000 C   0  0
    4.7944   11.4389    0.0000 C   0  0
    5.9136   12.4375    0.0000 C   0  0
    5.6083   13.9061    0.0000 C   0  0
    6.7261   14.9077    0.0000 O   0  0
    6.4186   16.3767    0.0000 C   0  0
    7.5363   17.3782    0.0000 C   0  0
    7.2290   18.8464    0.0000 O   0  0
    8.9616   16.9108    0.0000 O   0  0
    4.1839   14.3761    0.0000 C   0  0
    3.0646   13.3774    0.0000 C   0  0
    0.8247   11.3835    0.0000 C   0  0
   -0.2961   10.3866    0.0000 C   0  0
   -1.7198   10.8588    0.0000 Cl  0  0
   -1.2990   -0.7500    0.0000 C   0  0
   -2.5981   -1.5000    0.0000 Cl  0  0
    0.0000   -1.5000    0.0000 C   0  0
  1  2  1  0
  2  3  1  0
  2  4  1  0
  2  5  1  0
  5  6  2  0
  6  7  1  0
  7  8  2  0
  8  9  1  0
  9 10  1  0
 10 11  2  0
 11 12  1  0
 12 13  2  0
 13  9  1  0
 13 14  1  0
 14 15  1  0
 15 16  1  0
 16 17  2  0
 16 18  1  0
 18 19  1  0
 19 20  2  0
 20 21  1  0
 21 22  2  0
 22 23  1  0
 23 24  2  0
 24 25  1  0
 25 26  2  0
 26 27  1  0
 27 28  1  0
 28 29  1  0
 29 30  2  0
 29 31  1  0
 26 32  1  0
 32 33  2  0
 33 23  1  0
 22 34  1  0
 34 35  2  0
 35 19  1  0
 35 36  1  0
  8 37  1  0
 37 38  1  0
 37 39  2  0
 39  5  1  0
M  END
> <Smiles>
CC(C)(C)c1ccc(-n2nnnc2SCC(=O)Nc2ccc(-c3ccc(OCC(=O)O)cc3)cc2Cl)c(Cl)c1

> <IC50_uM>
0.023

> <pIC50>
7.638272164

> <Activity>
1

$$$$

  SciTegic10102310092D

 32 35  0  0  0  0            999 V2000
    3.1676   -7.5606    0.0000 C   0  0
    1.7006   -7.2475    0.0000 C   0  0
    0.6960   -8.3614    0.0000 C   0  0
   -0.7710   -8.0483    0.0000 C   0  0
   -1.7756   -9.1622    0.0000 C   0  0
   -1.2333   -6.6213    0.0000 C   0  0
   -0.2287   -5.5075    0.0000 C   0  0
   -0.6913   -4.0797    0.0000 S   0  0
   -2.1584   -3.7671    0.0000 O   0  0
   -1.6957   -5.1937    0.0000 O   0  0
    0.3114   -2.9665    0.0000 C   0  0
    1.8032   -3.1233    0.0000 C   0  0
    2.5551   -4.4192    0.0000 C   0  0
    1.8074   -5.7196    0.0000 O   0  0
    4.0559   -4.4171    0.0000 N   0  0
    4.8090   -5.7153    0.0000 C   0  0
    6.3090   -5.7153    0.0000 C   0  0
    7.0591   -7.0143    0.0000 C   0  0
    6.3092   -8.3134    0.0000 N   0  0
    4.8092   -8.3134    0.0000 C   0  0
    4.0588   -9.6132    0.0000 C   0  0
    3.3089  -10.9123    0.0000 N   0  0
    4.0591   -7.0144    0.0000 C   0  0
    2.4133   -1.7530    0.0000 N   0  0
    1.2990   -0.7500    0.0000 C   0  0
    1.2990    0.7500    0.0000 C   0  0
    0.0000    1.5000    0.0000 C   0  0
   -1.2990    0.7500    0.0000 C   0  0
   -2.5981    1.5000    0.0000 Cl  0  0
   -1.2990   -0.7500    0.0000 C   0  0
    0.0000   -1.5000    0.0000 C   0  0
    1.2383   -5.8206    0.0000 C   0  0
  1  2  1  0
  2  3  2  0
  3  4  1  0
  4  5  1  0
  4  6  2  0
  6  7  1  0
  7  8  1  0
  8  9  2  0
  8 10  2  0
  8 11  1  0
 11 12  2  0
 12 13  1  0
 13 14  2  0
 13 15  1  0
 15 16  1  0
 16 17  2  0
 17 18  1  0
 18 19  2  0
 19 20  1  0
 20 21  1  0
 21 22  3  0
 20 23  2  0
 23 16  1  0
 12 24  1  0
 24 25  1  0
 25 26  2  0
 26 27  1  0
 27 28  2  0
 28 29  1  0
 28 30  1  0
 30 31  2  0
 31 11  1  0
 31 25  1  0
  7 32  2  0
 32  2  1  0
M  END
> <Smiles>
Cc1cc(C)cc(S(=O)(=O)c2c(C(=O)Nc3ccnc(C#N)c3)[nH]c3ccc(Cl)cc23)c1

> <IC50_uM>
0.023

> <pIC50>
7.638272164

> <Activity>
1

$$$$

  SciTegic10102310092D

 38 41  0  0  0  0            999 V2000
    5.1978   -4.5012    0.0000 C   0  0
    5.1983   -3.0012    0.0000 C   0  0
    3.8991   -3.7510    0.0000 C   0  0
    3.8985   -2.2508    0.0000 C   0  0
    2.5988   -1.5004    0.0000 C   0  0
    1.2990   -0.7500    0.0000 C   0  0
    1.2990    0.7500    0.0000 C   0  0
    0.0000    1.5000    0.0000 C   0  0
   -1.2990    0.7500    0.0000 C   0  0
   -2.5973    1.5031    0.0000 N   0  0
   -2.5951    3.0039    0.0000 C   0  0
   -1.2948    3.7516    0.0000 O   0  0
   -3.8933    3.7570    0.0000 C   0  0
   -3.8912    5.2578    0.0000 S   0  0
   -5.1894    6.0109    0.0000 C   0  0
   -6.5408    5.3898    0.0000 N   0  0
   -7.5445    6.5046    0.0000 N   0  0
   -6.7945    7.8036    0.0000 N   0  0
   -5.3273    7.4917    0.0000 N   0  0
   -4.2061    8.4893    0.0000 C   0  0
   -4.6302    9.9300    0.0000 C   0  0
   -3.5923   11.0129    0.0000 C   0  0
   -2.1355   10.6554    0.0000 C   0  0
   -1.0970   11.7388    0.0000 C   0  0
   -0.8006   13.1292    0.0000 C   0  0
    0.2807   12.0895    0.0000 C   0  0
   -1.7166    9.2151    0.0000 C   0  0
   -2.7546    8.1322    0.0000 C   0  0
   -2.3362    6.6917    0.0000 Cl  0  0
   -1.2990   -0.7500    0.0000 C   0  0
   -2.5981   -1.5000    0.0000 Cl  0  0
    0.0000   -1.5000    0.0000 C   0  0
    6.4985   -2.2516    0.0000 C   0  0
    7.7983   -3.0020    0.0000 N   0  0
    9.0985   -2.2525    0.0000 C   0  0
   10.3983   -3.0029    0.0000 C   0  0
   11.6978   -2.2537    0.0000 O   0  0
   10.3978   -4.5029    0.0000 O   0  0
  1  2  1  0
  2  3  1  0
  2  4  1  0
  4  5  3  0
  5  6  1  0
  6  7  2  0
  7  8  1  0
  8  9  2  0
  9 10  1  0
 10 11  1  0
 11 12  2  0
 11 13  1  0
 13 14  1  0
 14 15  1  0
 15 16  2  0
 16 17  1  0
 17 18  2  0
 18 19  1  0
 19 15  1  0
 19 20  1  0
 20 21  2  0
 21 22  1  0
 22 23  2  0
 23 24  1  0
 24 25  1  0
 25 26  1  0
 26 24  1  0
 23 27  1  0
 27 28  2  0
 28 20  1  0
 28 29  1  0
  9 30  1  0
 30 31  1  0
 30 32  2  0
 32  6  1  0
  2 33  1  0
 33 34  1  0
 34 35  1  0
 35 36  1  0
 36 37  2  0
 36 38  1  0
M  END
> <Smiles>
CC(C)(C#Cc1ccc(NC(=O)CSc2nnnn2-c2ccc(C3CC3)cc2Cl)c(Cl)c1)CNCC(=O)O

> <IC50_uM>
0.023

> <pIC50>
7.638272164

> <Activity>
1

$$$$

  SciTegic10102310092D

 37 40  0  0  0  0            999 V2000
    5.1978   -4.5012    0.0000 C   0  0
    5.1983   -3.0012    0.0000 C   0  0
    3.8991   -3.7510    0.0000 C   0  0
    3.8985   -2.2508    0.0000 C   0  0
    2.5988   -1.5004    0.0000 C   0  0
    1.2990   -0.7500    0.0000 C   0  0
    1.2990    0.7500    0.0000 C   0  0
    0.0000    1.5000    0.0000 C   0  0
   -1.2990    0.7500    0.0000 C   0  0
   -2.5973    1.5031    0.0000 N   0  0
   -2.5951    3.0039    0.0000 C   0  0
   -1.2948    3.7516    0.0000 O   0  0
   -3.8933    3.7570    0.0000 C   0  0
   -3.8912    5.2578    0.0000 S   0  0
   -5.1894    6.0109    0.0000 C   0  0
   -6.5408    5.3898    0.0000 N   0  0
   -7.5445    6.5046    0.0000 N   0  0
   -6.7945    7.8036    0.0000 N   0  0
   -5.3273    7.4917    0.0000 N   0  0
   -4.2061    8.4893    0.0000 C   0  0
   -4.6302    9.9300    0.0000 C   0  0
   -3.5923   11.0129    0.0000 C   0  0
   -2.1355   10.6554    0.0000 C   0  0
   -1.0970   11.7388    0.0000 C   0  0
   -0.8006   13.1292    0.0000 C   0  0
    0.2807   12.0895    0.0000 C   0  0
   -1.7166    9.2151    0.0000 C   0  0
   -2.7546    8.1322    0.0000 C   0  0
   -2.3362    6.6917    0.0000 Cl  0  0
   -1.2990   -0.7500    0.0000 C   0  0
   -2.5981   -1.5000    0.0000 Cl  0  0
    0.0000   -1.5000    0.0000 C   0  0
    6.4985   -2.2516    0.0000 O   0  0
    7.7983   -3.0020    0.0000 C   0  0
    9.0985   -2.2525    0.0000 C   0  0
   10.3975   -3.0025    0.0000 O   0  0
    9.0990   -0.7525    0.0000 O   0  0
  1  2  1  0
  2  3  1  0
  2  4  1  0
  4  5  3  0
  5  6  1  0
  6  7  2  0
  7  8  1  0
  8  9  2  0
  9 10  1  0
 10 11  1  0
 11 12  2  0
 11 13  1  0
 13 14  1  0
 14 15  1  0
 15 16  2  0
 16 17  1  0
 17 18  2  0
 18 19  1  0
 19 15  1  0
 19 20  1  0
 20 21  2  0
 21 22  1  0
 22 23  2  0
 23 24  1  0
 24 25  1  0
 25 26  1  0
 26 24  1  0
 23 27  1  0
 27 28  2  0
 28 20  1  0
 28 29  1  0
  9 30  1  0
 30 31  1  0
 30 32  2  0
 32  6  1  0
  2 33  1  0
 33 34  1  0
 34 35  1  0
 35 36  2  0
 35 37  1  0
M  END
> <Smiles>
CC(C)(C#Cc1ccc(NC(=O)CSc2nnnn2-c2ccc(C3CC3)cc2Cl)c(Cl)c1)OCC(=O)O

> <IC50_uM>
0.023

> <pIC50>
7.638272164

> <Activity>
1

$$$$

  SciTegic10102310092D

 33 36  0  0  0  0            999 V2000
    2.5981   -1.5000    0.0000 C   0  0
    1.2990   -0.7500    0.0000 C   0  0
    1.2990    0.7500    0.0000 C   0  0
    0.0000    1.5000    0.0000 C   0  0
    0.0000    3.0008    0.0000 C   0  0
    0.0000    4.5008    0.0000 N   0  0
   -1.2990    0.7500    0.0000 C   0  0
   -1.2990   -0.7500    0.0000 C   0  0
   -2.5981   -1.5000    0.0000 C   0  0
    0.0000   -1.5000    0.0000 C   0  0
    0.0031   -3.0008    0.0000 N   0  0
    1.3039   -3.7494    0.0000 C   0  0
    1.3092   -5.2494    0.0000 C   0  0
    2.6108   -5.9949    0.0000 C   0  0
    3.9073   -5.2404    0.0000 N   0  0
    3.9021   -3.7404    0.0000 C   0  0
    5.1977   -2.9829    0.0000 N   0  0
    5.1903   -1.4820    0.0000 C   0  0
    6.4841   -0.7230    0.0000 C   0  0
    6.4738    0.7770    0.0000 C   0  0
    5.1696    1.5180    0.0000 N   0  0
    5.1592    3.0187    0.0000 C   0  0
    6.4518    3.7798    0.0000 C   0  0
    6.4390    5.2798    0.0000 C   0  0
    5.1337    6.0187    0.0000 C   0  0
    3.8411    5.2577    0.0000 C   0  0
    2.5334    5.9943    0.0000 C   0  0
    2.5181    7.4942    0.0000 N   0  0
    1.2419    5.2315    0.0000 O   0  0
    3.8538    3.7577    0.0000 C   0  0
    3.8757    0.7590    0.0000 C   0  0
    3.8861   -0.7410    0.0000 C   0  0
    2.6004   -2.9949    0.0000 N   0  0
  1  2  1  0
  2  3  2  0
  3  4  1  0
  4  5  1  0
  5  6  3  0
  4  7  2  0
  7  8  1  0
  8  9  1  0
  8 10  2  0
 10  2  1  0
 10 11  1  0
 11 12  1  0
 12 13  2  0
 13 14  1  0
 14 15  2  0
 15 16  1  0
 16 17  1  0
 17 18  1  0
 18 19  1  0
 19 20  1  0
 20 21  1  0
 21 22  1  0
 22 23  2  0
 23 24  1  0
 24 25  2  0
 25 26  1  0
 26 27  1  0
 27 28  1  0
 27 29  2  0
 26 30  2  0
 30 22  1  0
 21 31  1  0
 31 32  1  0
 32 18  1  0
 16 33  2  0
 33 12  1  0
M  END
> <Smiles>
Cc1cc(C#N)cc(C)c1Nc1ccnc(NC2CCN(c3cccc(C(N)=O)c3)CC2)n1

> <IC50_uM>
0.023

> <pIC50>
7.638272164

> <Activity>
1

$$$$

  SciTegic10102310092D

 25 27  0  0  0  0            999 V2000
    3.8976   -0.7553    0.0000 O   0  0
    2.5973   -1.5031    0.0000 C   0  0
    1.2990   -0.7500    0.0000 C   0  0
    1.2990    0.7500    0.0000 C   0  0
    0.0000    1.5000    0.0000 C   0  0
   -1.2990    0.7500    0.0000 C   0  0
   -2.5987    1.5004    0.0000 C   0  0
   -2.6012    3.0004    0.0000 C   0  0
   -3.9015    3.7484    0.0000 C   0  0
   -5.1993    2.9963    0.0000 C   0  0
   -6.4995    3.7442    0.0000 Cl  0  0
   -5.1969    1.4963    0.0000 C   0  0
   -6.4947    0.7442    0.0000 F   0  0
   -3.8967    0.7484    0.0000 C   0  0
   -1.2990   -0.7500    0.0000 C   0  0
    0.0000   -1.5000    0.0000 C   0  0
    2.5951   -3.0039    0.0000 C   0  0
    3.8915   -3.7585    0.0000 C   0  0
    3.8864   -5.2585    0.0000 C   0  0
    5.1828   -6.0130    0.0000 O   0  0
    2.5847   -6.0040    0.0000 N   0  0
    2.5795   -7.5040    0.0000 O   0  0
    1.2883   -5.2495    0.0000 C   0  0
   -0.0133   -5.9950    0.0000 O   0  0
    1.2935   -3.7495    0.0000 N   0  0
  1  2  2  0
  2  3  1  0
  3  4  2  0
  4  5  1  0
  5  6  2  0
  6  7  1  0
  7  8  2  0
  8  9  1  0
  9 10  2  0
 10 11  1  0
 10 12  1  0
 12 13  1  0
 12 14  2  0
 14  7  1  0
  6 15  1  0
 15 16  2  0
 16  3  1  0
  2 17  1  0
 17 18  2  0
 18 19  1  0
 19 20  2  0
 19 21  1  0
 21 22  1  0
 21 23  1  0
 23 24  2  0
 23 25  1  0
 25 17  1  0
M  END
> <Smiles>
O=C(c1ccc(-c2ccc(Cl)c(F)c2)cc1)c1cc(=O)n(O)c(=O)[nH]1

> <IC50_uM>
0.023

> <pIC50>
7.638272164

> <Activity>
1

$$$$

  SciTegic10102310092D

 34 37  0  0  0  0            999 V2000
    3.1676   -7.5606    0.0000 C   0  0
    1.7006   -7.2475    0.0000 C   0  0
    0.6960   -8.3614    0.0000 C   0  0
   -0.7710   -8.0483    0.0000 C   0  0
   -1.7756   -9.1622    0.0000 C   0  0
   -1.2333   -6.6213    0.0000 C   0  0
   -0.2287   -5.5075    0.0000 C   0  0
   -0.6913   -4.0797    0.0000 S   0  0
   -2.1584   -3.7671    0.0000 O   0  0
   -1.6957   -5.1937    0.0000 O   0  0
    0.3114   -2.9665    0.0000 C   0  0
    1.8032   -3.1233    0.0000 C   0  0
    2.5551   -4.4192    0.0000 C   0  0
    1.8074   -5.7196    0.0000 O   0  0
    4.0559   -4.4171    0.0000 N   0  0
    4.8090   -5.7153    0.0000 C   0  0
    6.3098   -5.7131    0.0000 C   0  0
    7.0554   -4.4114    0.0000 C   0  0
    8.5554   -4.4062    0.0000 C   0  0
    9.3099   -5.7026    0.0000 C   0  0
    8.5644   -7.0043    0.0000 C   0  0
    7.0644   -7.0095    0.0000 C   0  0
    6.3213   -8.3134    0.0000 N   0  3
    7.0777   -9.6087    0.0000 O   0  0
    4.8213   -8.3213    0.0000 O   0  5
    2.4133   -1.7530    0.0000 N   0  0
    1.2990   -0.7500    0.0000 C   0  0
    1.2990    0.7500    0.0000 C   0  0
    0.0000    1.5000    0.0000 C   0  0
   -1.2990    0.7500    0.0000 C   0  0
   -2.5981    1.5000    0.0000 Cl  0  0
   -1.2990   -0.7500    0.0000 C   0  0
    0.0000   -1.5000    0.0000 C   0  0
    1.2383   -5.8206    0.0000 C   0  0
  1  2  1  0
  2  3  2  0
  3  4  1  0
  4  5  1  0
  4  6  2  0
  6  7  1  0
  7  8  1  0
  8  9  2  0
  8 10  2  0
  8 11  1  0
 11 12  2  0
 12 13  1  0
 13 14  2  0
 13 15  1  0
 15 16  1  0
 16 17  1  0
 17 18  2  0
 18 19  1  0
 19 20  2  0
 20 21  1  0
 21 22  2  0
 22 17  1  0
 22 23  1  0
 23 24  2  0
 23 25  1  0
 12 26  1  0
 26 27  1  0
 27 28  2  0
 28 29  1  0
 29 30  2  0
 30 31  1  0
 30 32  1  0
 32 33  2  0
 33 11  1  0
 33 27  1  0
  7 34  2  0
 34  2  1  0
M  CHG  2  23   1  25  -1
M  END
> <Smiles>
Cc1cc(C)cc(S(=O)(=O)c2c(C(=O)NCc3ccccc3[N+](=O)[O-])[nH]c3ccc(Cl)cc23)c1

> <IC50_uM>
0.023

> <pIC50>
7.638272164

> <Activity>
1

$$$$

  SciTegic10102310092D

 36 38  0  0  0  0            999 V2000
   11.6472   -1.8255    0.0000 C   0  0
   10.1554   -1.9824    0.0000 C   0  0
    9.4054   -3.2814    0.0000 N   0  0
    7.9382   -2.9695    0.0000 N   0  0
    7.8003   -1.4887    0.0000 C   0  0
    6.4990   -0.7409    0.0000 O   0  0
    5.2003   -1.4932    0.0000 C   0  0
    3.8990   -0.7455    0.0000 C   0  0
    3.8964    0.7545    0.0000 O   0  0
    2.6003   -1.4977    0.0000 N   0  0
    1.2990   -0.7500    0.0000 C   0  0
    1.2990    0.7500    0.0000 C   0  0
    0.0000    1.5000    0.0000 C   0  0
   -1.2990    0.7500    0.0000 C   0  0
   -2.5988    1.5004    0.0000 C   0  0
   -3.8986    2.2508    0.0000 C   0  0
   -5.1983    3.0012    0.0000 C   0  0
   -6.4971    2.2508    0.0000 C   0  0
   -5.1981    1.5012    0.0000 C   0  0
   -5.1993    4.5020    0.0000 C   0  0
   -6.4983    5.2520    0.0000 O   0  0
   -1.2990   -0.7500    0.0000 C   0  0
    0.0000   -1.5000    0.0000 C   0  0
    0.0000   -3.0000    0.0000 Cl  0  0
    9.1517   -0.8676    0.0000 C   0  0
    9.4550    0.6021    0.0000 C   0  0
   10.9147    0.9552    0.0000 C   0  0
   11.3335    2.3955    0.0000 C   0  0
   10.2956    3.4784    0.0000 C   0  0
   10.7146    4.9195    0.0000 C   0  0
   12.1712    5.2779    0.0000 C   0  0
    9.6763    6.0021    0.0000 C   0  0
   11.1327    6.3601    0.0000 C   0  0
    8.8388    3.1209    0.0000 C   0  0
    8.4200    1.6806    0.0000 C   0  0
    6.9633    1.3227    0.0000 Cl  0  0
  1  2  1  0
  2  3  1  0
  3  4  1  0
  4  5  2  0
  5  6  1  0
  6  7  1  0
  7  8  1  0
  8  9  2  0
  8 10  1  0
 10 11  1  0
 11 12  2  0
 12 13  1  0
 13 14  2  0
 14 15  1  0
 15 16  3  0
 16 17  1  0
 17 18  1  0
 17 19  1  0
 17 20  1  0
 20 21  1  0
 14 22  1  0
 22 23  2  0
 23 11  1  0
 23 24  1  0
 25  5  1  4
 25  2  2  0
 25 26  1  0
 26 27  2  0
 27 28  1  0
 28 29  2  0
 29 30  1  0
 30 31  1  0
 30 32  1  0
 30 33  1  0
 29 34  1  0
 34 35  2  0
 35 26  1  0
 35 36  1  0
M  END
> <Smiles>
Cc1[nH]nc(OCC(=O)Nc2ccc(C#CC(C)(C)CO)cc2Cl)c1-c1ccc(C(C)(C)C)cc1Cl

> <IC50_uM>
0.024

> <pIC50>
7.619788758

> <Activity>
1

$$$$

  SciTegic10102310092D

 24 26  0  0  0  0            999 V2000
    3.8978   -2.2504    0.0000 N   0  0
    2.5988   -1.5004    0.0000 C   0  0
    1.2990   -0.7500    0.0000 C   0  0
    1.2990    0.7500    0.0000 C   0  0
    0.0000    1.5000    0.0000 C   0  0
   -1.2990    0.7500    0.0000 C   0  0
   -2.6003    1.4977    0.0000 N   0  0
   -3.8990    0.7455    0.0000 C   0  0
   -5.2007    1.4909    0.0000 N   0  0
   -6.4972    0.7364    0.0000 C   0  0
   -6.4920   -0.7636    0.0000 C   0  0
   -5.1903   -1.5091    0.0000 C   0  0
   -5.1821   -3.0099    0.0000 N   0  0
   -3.8787   -3.7540    0.0000 C   0  0
   -3.8704   -5.2548    0.0000 C   0  0
   -2.5687   -6.0003    0.0000 C   0  0
   -2.5635   -7.5003    0.0000 C   0  0
   -3.8599   -8.2548    0.0000 C   0  0
   -5.1616   -7.5094    0.0000 C   0  0
   -6.4580   -8.2639    0.0000 Br  0  0
   -5.1668   -6.0094    0.0000 C   0  0
   -3.8939   -0.7546    0.0000 N   0  0
   -1.2990   -0.7500    0.0000 C   0  0
    0.0000   -1.5000    0.0000 C   0  0
  1  2  3  0
  2  3  1  0
  3  4  2  0
  4  5  1  0
  5  6  2  0
  6  7  1  0
  7  8  1  0
  8  9  2  0
  9 10  1  0
 10 11  2  0
 11 12  1  0
 12 13  1  0
 13 14  1  0
 14 15  1  0
 15 16  2  0
 16 17  1  0
 17 18  2  0
 18 19  1  0
 19 20  1  0
 19 21  2  0
 21 15  1  0
 12 22  2  0
 22  8  1  0
  6 23  1  0
 23 24  2  0
 24  3  1  0
M  END
> <Smiles>
N#Cc1ccc(Nc2nccc(NCc3cccc(Br)c3)n2)cc1

> <IC50_uM>
0.024

> <pIC50>
7.619788758

> <Activity>
1

$$$$

  SciTegic10102310092D

 24 26  0  0  0  0            999 V2000
    3.8978   -2.2504    0.0000 N   0  0
    2.5988   -1.5004    0.0000 C   0  0
    1.2990   -0.7500    0.0000 C   0  0
    1.2990    0.7500    0.0000 C   0  0
    0.0000    1.5000    0.0000 C   0  0
   -1.2990    0.7500    0.0000 C   0  0
   -2.6003    1.4977    0.0000 N   0  0
   -3.8990    0.7455    0.0000 C   0  0
   -5.2007    1.4909    0.0000 N   0  0
   -6.4972    0.7364    0.0000 C   0  0
   -6.4920   -0.7636    0.0000 C   0  0
   -5.1903   -1.5091    0.0000 C   0  0
   -5.1821   -3.0099    0.0000 N   0  0
   -3.8787   -3.7540    0.0000 C   0  0
   -3.8704   -5.2548    0.0000 C   0  0
   -5.1668   -6.0094    0.0000 C   0  0
   -5.1616   -7.5094    0.0000 C   0  0
   -3.8599   -8.2548    0.0000 C   0  0
   -2.5635   -7.5003    0.0000 C   0  0
   -2.5687   -6.0003    0.0000 C   0  0
   -1.2723   -5.2458    0.0000 Cl  0  0
   -3.8939   -0.7546    0.0000 N   0  0
   -1.2990   -0.7500    0.0000 C   0  0
    0.0000   -1.5000    0.0000 C   0  0
  1  2  3  0
  2  3  1  0
  3  4  2  0
  4  5  1  0
  5  6  2  0
  6  7  1  0
  7  8  1  0
  8  9  2  0
  9 10  1  0
 10 11  2  0
 11 12  1  0
 12 13  1  0
 13 14  1  0
 14 15  1  0
 15 16  2  0
 16 17  1  0
 17 18  2  0
 18 19  1  0
 19 20  2  0
 20 15  1  0
 20 21  1  0
 12 22  2  0
 22  8  1  0
  6 23  1  0
 23 24  2  0
 24  3  1  0
M  END
> <Smiles>
N#Cc1ccc(Nc2nccc(NCc3ccccc3Cl)n2)cc1

> <IC50_uM>
0.024

> <pIC50>
7.619788758

> <Activity>
1

$$$$

  SciTegic10102310092D

 32 35  0  0  0  0            999 V2000
    3.1676   -7.5606    0.0000 C   0  0
    1.7006   -7.2475    0.0000 C   0  0
    0.6960   -8.3614    0.0000 C   0  0
   -0.7710   -8.0483    0.0000 C   0  0
   -1.7756   -9.1622    0.0000 C   0  0
   -1.2333   -6.6213    0.0000 C   0  0
   -0.2287   -5.5075    0.0000 C   0  0
   -0.6913   -4.0797    0.0000 S   0  0
   -2.1584   -3.7671    0.0000 O   0  0
   -1.6957   -5.1937    0.0000 O   0  0
    0.3114   -2.9665    0.0000 C   0  0
    1.8032   -3.1233    0.0000 C   0  0
    2.5551   -4.4192    0.0000 C   0  0
    1.8074   -5.7196    0.0000 O   0  0
    4.0559   -4.4171    0.0000 N   0  0
    4.8090   -5.7153    0.0000 C   0  0
    6.3098   -5.7131    0.0000 C   0  0
    7.0644   -7.0095    0.0000 C   0  0
    8.5644   -7.0043    0.0000 C   0  0
    9.3099   -5.7026    0.0000 C   0  0
   10.8099   -5.6974    0.0000 F   0  0
    8.5554   -4.4062    0.0000 C   0  0
    7.0554   -4.4114    0.0000 C   0  0
    2.4133   -1.7530    0.0000 N   0  0
    1.2990   -0.7500    0.0000 C   0  0
    1.2990    0.7500    0.0000 C   0  0
    0.0000    1.5000    0.0000 C   0  0
   -1.2990    0.7500    0.0000 C   0  0
   -2.5981    1.5000    0.0000 Cl  0  0
   -1.2990   -0.7500    0.0000 C   0  0
    0.0000   -1.5000    0.0000 C   0  0
    1.2383   -5.8206    0.0000 C   0  0
  1  2  1  0
  2  3  2  0
  3  4  1  0
  4  5  1  0
  4  6  2  0
  6  7  1  0
  7  8  1  0
  8  9  2  0
  8 10  2  0
  8 11  1  0
 11 12  2  0
 12 13  1  0
 13 14  2  0
 13 15  1  0
 15 16  1  0
 16 17  1  0
 17 18  2  0
 18 19  1  0
 19 20  2  0
 20 21  1  0
 20 22  1  0
 22 23  2  0
 23 17  1  0
 12 24  1  0
 24 25  1  0
 25 26  2  0
 26 27  1  0
 27 28  2  0
 28 29  1  0
 28 30  1  0
 30 31  2  0
 31 11  1  0
 31 25  1  0
  7 32  2  0
 32  2  1  0
M  END
> <Smiles>
Cc1cc(C)cc(S(=O)(=O)c2c(C(=O)NCc3ccc(F)cc3)[nH]c3ccc(Cl)cc23)c1

> <IC50_uM>
0.024

> <pIC50>
7.619788758

> <Activity>
1

$$$$

  SciTegic10102310092D

 31 34  0  0  0  0            999 V2000
    2.5981   -1.5000    0.0000 C   0  0
    1.2990   -0.7500    0.0000 C   0  0
    1.2990    0.7500    0.0000 C   0  0
    0.0000    1.5000    0.0000 C   0  0
    0.0000    3.0000    0.0000 C   0  0
   -1.2990    0.7500    0.0000 C   0  0
   -2.6003    1.4977    0.0000 N   0  0
   -3.8990    0.7455    0.0000 C   0  0
   -3.8939   -0.7546    0.0000 N   0  0
   -5.1903   -1.5091    0.0000 C   0  0
   -5.1882   -3.0099    0.0000 N   0  0
   -6.4865   -3.7630    0.0000 C   0  0
   -6.4866   -5.2630    0.0000 C   0  0
   -7.7856   -6.0130    0.0000 C   0  0
   -9.0846   -5.2630    0.0000 C   0  0
  -10.3844   -6.0134    0.0000 C   0  0
  -11.6834   -6.7634    0.0000 N   0  0
   -9.0846   -3.7630    0.0000 C   0  0
   -7.7856   -3.0130    0.0000 C   0  0
   -6.4920   -0.7636    0.0000 N   0  0
   -6.4972    0.7364    0.0000 C   0  0
   -5.2007    1.4909    0.0000 C   0  0
   -5.2060    2.9916    0.0000 C   0  0
   -3.9107    3.7483    0.0000 C   0  0
   -3.9183    5.2483    0.0000 C   0  0
   -5.2211    5.9917    0.0000 C   0  0
   -6.5164    5.2352    0.0000 C   0  0
   -6.5088    3.7352    0.0000 C   0  0
   -1.2990   -0.7500    0.0000 C   0  0
   -2.5981   -1.5000    0.0000 C   0  0
    0.0000   -1.5000    0.0000 C   0  0
  1  2  1  0
  2  3  2  0
  3  4  1  0
  4  5  1  0
  4  6  2  0
  6  7  1  0
  7  8  1  0
  8  9  2  0
  9 10  1  0
 10 11  1  0
 11 12  1  0
 12 13  2  0
 13 14  1  0
 14 15  2  0
 15 16  1  0
 16 17  3  0
 15 18  1  0
 18 19  2  0
 19 12  1  0
 10 20  2  0
 20 21  1  0
 21 22  2  0
 22  8  1  0
 22 23  1  0
 23 24  2  0
 24 25  1  0
 25 26  2  0
 26 27  1  0
 27 28  2  0
 28 23  1  0
  6 29  1  0
 29 30  1  0
 29 31  2  0
 31  2  1  0
M  END
> <Smiles>
Cc1cc(C)c(Nc2nc(Nc3ccc(C#N)cc3)ncc2-c2ccccc2)c(C)c1

> <IC50_uM>
0.024

> <pIC50>
7.619788758

> <Activity>
1

$$$$

  SciTegic10102310092D

 25 27  0  0  0  0            999 V2000
    3.8978   -2.2504    0.0000 N   0  0
    2.5988   -1.5004    0.0000 C   0  0
    1.2990   -0.7500    0.0000 C   0  0
    1.2990    0.7500    0.0000 C   0  0
    0.0000    1.5000    0.0000 C   0  0
   -1.2990    0.7500    0.0000 C   0  0
   -2.5987    1.5004    0.0000 C   0  0
   -2.6012    3.0004    0.0000 C   0  0
   -3.9015    3.7484    0.0000 C   0  0
   -5.1993    2.9963    0.0000 C   0  0
   -6.5018    3.7420    0.0000 C   0  0
   -6.5068    5.2419    0.0000 O   0  0
   -7.7993    2.9876    0.0000 C   0  0
   -9.1021    3.7310    0.0000 C   0  0
  -10.3974    2.9744    0.0000 C   0  0
  -11.7002    3.7179    0.0000 O   0  0
  -10.3898    1.4745    0.0000 N   0  0
  -11.6850    0.7179    0.0000 O   0  0
   -9.0870    0.7310    0.0000 C   0  0
   -9.0794   -0.7689    0.0000 O   0  0
   -7.7918    1.4876    0.0000 N   0  0
   -5.1969    1.4963    0.0000 C   0  0
   -3.8967    0.7484    0.0000 C   0  0
   -1.2990   -0.7500    0.0000 C   0  0
    0.0000   -1.5000    0.0000 C   0  0
  1  2  3  0
  2  3  1  0
  3  4  2  0
  4  5  1  0
  5  6  2  0
  6  7  1  0
  7  8  2  0
  8  9  1  0
  9 10  2  0
 10 11  1  0
 11 12  2  0
 11 13  1  0
 13 14  2  0
 14 15  1  0
 15 16  2  0
 15 17  1  0
 17 18  1  0
 17 19  1  0
 19 20  2  0
 19 21  1  0
 21 13  1  0
 10 22  1  0
 22 23  2  0
 23  7  1  0
  6 24  1  0
 24 25  2  0
 25  3  1  0
M  END
> <Smiles>
N#Cc1ccc(-c2ccc(C(=O)c3cc(=O)n(O)c(=O)[nH]3)cc2)cc1

> <IC50_uM>
0.024

> <pIC50>
7.619788758

> <Activity>
1

$$$$

  SciTegic10102310092D

 37 41  0  0  0  0            999 V2000
    2.5564  -10.5078    0.0000 C   0  0
    1.2626   -9.7488    0.0000 C   0  0
   -0.0416  -10.4898    0.0000 C   0  0
   -1.3354   -9.7309    0.0000 C   0  0
   -1.3250   -8.2309    0.0000 C   0  0
   -0.0209   -7.4899    0.0000 C   0  0
    1.2731   -8.2489    0.0000 C   0  0
    2.5765   -7.5048    0.0000 C   0  0
    2.5847   -6.0040    0.0000 N   0  0
    3.8864   -5.2585    0.0000 C   0  0
    3.8915   -3.7585    0.0000 C   0  0
    2.5951   -3.0039    0.0000 C   0  0
    2.5973   -1.5031    0.0000 N   0  0
    1.2990   -0.7500    0.0000 C   0  0
    1.2990    0.7500    0.0000 N   0  0
    0.0000    1.5000    0.0000 C   0  0
    0.0031    3.0008    0.0000 O   0  0
    1.3039    3.7494    0.0000 C   0  0
    1.3092    5.2494    0.0000 C   0  0
    0.0127    6.0039    0.0000 C   0  0
    2.6108    5.9949    0.0000 C   0  0
    3.9072    5.2405    0.0000 C   0  0
    5.2111    5.9837    0.0000 C   0  0
    6.5072    5.2270    0.0000 C   0  0
    7.8110    5.9702    0.0000 C   0  0
    9.1142    6.7130    0.0000 N   0  0
    3.9020    3.7405    0.0000 C   0  0
    2.6004    2.9949    0.0000 C   0  0
    2.5953    1.4950    0.0000 C   0  0
   -1.2990    0.7500    0.0000 C   0  0
   -2.7248    1.2135    0.0000 S   0  0
   -3.6065    0.0000    0.0000 C   0  0
   -2.7248   -1.2135    0.0000 C   0  0
   -1.2990   -0.7500    0.0000 C   0  0
    0.0000   -1.5000    0.0000 N   0  0
    1.2935   -3.7495    0.0000 C   0  0
    1.2883   -5.2495    0.0000 C   0  0
  1  2  1  0
  2  3  2  0
  3  4  1  0
  4  5  2  0
  5  6  1  0
  6  7  2  0
  7  2  1  0
  7  8  1  0
  8  9  1  0
  9 10  1  0
 10 11  1  0
 11 12  1  0
 12 13  1  0
 13 14  1  0
 14 15  2  0
 15 16  1  0
 16 17  1  0
 17 18  1  0
 18 19  2  0
 19 20  1  0
 19 21  1  0
 21 22  2  0
 22 23  1  0
 23 24  2  0
 24 25  1  0
 25 26  3  0
 22 27  1  0
 27 28  2  0
 28 18  1  0
 28 29  1  0
 16 30  2  0
 30 31  1  0
 31 32  1  0
 32 33  2  0
 33 34  1  0
 34 30  1  0
 34 35  2  0
 35 14  1  0
 12 36  1  0
 36 37  1  0
 37  9  1  0
M  END
> <Smiles>
Cc1ccccc1CN1CCC(Nc2nc(Oc3c(C)cc(/C=C/C#N)cc3C)c3sccc3n2)CC1

> <IC50_uM>
0.0248

> <pIC50>
7.605548319

> <Activity>
1

$$$$

  SciTegic10102310092D

 30 32  0  0  0  0            999 V2000
    2.5983   -3.0004    0.0000 N   0  0
    2.5988   -1.5004    0.0000 S   0  0
    3.8983   -0.7512    0.0000 O   0  0
    3.8975   -2.2510    0.0000 O   0  0
    1.2990   -0.7500    0.0000 C   0  0
    1.2990    0.7500    0.0000 C   0  0
    0.0000    1.5000    0.0000 C   0  0
   -1.2990    0.7500    0.0000 C   0  0
   -2.5973    1.5031    0.0000 N   0  0
   -2.5951    3.0039    0.0000 C   0  0
   -1.2948    3.7516    0.0000 O   0  0
   -3.8933    3.7570    0.0000 C   0  0
   -3.8912    5.2578    0.0000 O   0  0
   -5.1894    6.0109    0.0000 C   0  0
   -5.1895    7.5109    0.0000 C   0  0
   -6.4885    8.2609    0.0000 C   0  0
   -6.4885    9.7609    0.0000 Cl  0  0
   -7.7876    7.5110    0.0000 C   0  0
   -7.7876    6.0110    0.0000 C   0  0
   -9.0858    5.2579    0.0000 O   0  0
   -9.0837    3.7571    0.0000 C   0  0
  -10.3801    3.0025    0.0000 C   0  0
  -10.3750    1.5025    0.0000 C   0  0
   -9.0734    0.7570    0.0000 C   0  0
   -7.7769    1.5115    0.0000 C   0  0
   -7.7821    3.0115    0.0000 C   0  0
   -6.4886    5.2609    0.0000 C   0  0
   -1.2990   -0.7500    0.0000 C   0  0
   -2.5981   -1.5000    0.0000 Cl  0  0
    0.0000   -1.5000    0.0000 C   0  0
  1  2  1  0
  2  3  2  0
  2  4  2  0
  2  5  1  0
  5  6  2  0
  6  7  1  0
  7  8  2  0
  8  9  1  0
  9 10  1  0
 10 11  2  0
 10 12  1  0
 12 13  1  0
 13 14  1  0
 14 15  2  0
 15 16  1  0
 16 17  1  0
 16 18  2  0
 18 19  1  0
 19 20  1  0
 20 21  1  0
 21 22  2  0
 22 23  1  0
 23 24  2  0
 24 25  1  0
 25 26  2  0
 26 21  1  0
 19 27  2  0
 27 14  1  0
  8 28  1  0
 28 29  1  0
 28 30  2  0
 30  5  1  0
M  END
> <Smiles>
NS(=O)(=O)c1ccc(NC(=O)COc2cc(Cl)cc(Oc3ccccc3)c2)c(Cl)c1

> <IC50_uM>
0.025

> <pIC50>
7.602059991

> <Activity>
1

$$$$

  SciTegic10102310092D

 26 27  0  0  0  0            999 V2000
    3.8983   -0.7566    0.0000 C   0  0
    2.5973   -1.5031    0.0000 C   0  0
    1.2990   -0.7500    0.0000 C   0  0
    1.2990    0.7500    0.0000 C   0  0
    2.5981    1.5000    0.0000 C   0  0
    0.0000    1.5000    0.0000 N   0  0
   -1.2990    0.7500    0.0000 C   0  0
   -2.5981    1.5000    0.0000 O   0  0
   -1.2990   -0.7500    0.0000 C   0  0
   -2.5972   -1.5031    0.0000 N   0  0
   -3.8976   -0.7554    0.0000 C   0  0
   -2.5951   -3.0039    0.0000 C   0  0
   -3.8933   -3.7570    0.0000 C   0  0
   -3.8912   -5.2578    0.0000 C   0  0
   -5.1894   -6.0109    0.0000 S   0  0
   -5.1872   -7.5109    0.0000 C   0  0
    0.0000   -1.5000    0.0000 C   0  0
    0.0031   -3.0008    0.0000 C   0  0
    1.3039   -3.7494    0.0000 C   0  0
    1.3092   -5.2494    0.0000 C   0  0
    2.6108   -5.9949    0.0000 C   0  0
    2.6160   -7.4949    0.0000 C   0  0
    3.9073   -5.2404    0.0000 C   0  0
    3.9021   -3.7404    0.0000 C   0  0
    5.1985   -2.9859    0.0000 C   0  0
    2.6004   -2.9949    0.0000 C   0  0
  1  2  1  0
  2  3  1  0
  3  4  2  0
  4  5  1  0
  4  6  1  0
  6  7  1  0
  7  8  2  0
  7  9  1  0
  9 10  1  0
 10 11  1  0
 10 12  1  0
 12 13  1  0
 13 14  1  0
 14 15  1  0
 15 16  1  0
  9 17  2  0
 17  3  1  0
 17 18  1  0
 18 19  1  0
 19 20  2  0
 20 21  1  0
 21 22  1  0
 21 23  2  0
 23 24  1  0
 24 25  1  0
 24 26  2  0
 26 19  1  0
M  END
> <Smiles>
CCc1c(C)[nH]c(=O)c(N(C)CCCSC)c1Cc1cc(C)cc(C)c1

> <IC50_uM>
0.025

> <pIC50>
7.602059991

> <Activity>
1

$$$$

  SciTegic10102310092D

 27 28  0  0  0  0            999 V2000
    2.5951   -3.0031    0.0000 C   0  0
    2.5973   -1.5031    0.0000 C   0  0
    1.2990   -0.7500    0.0000 C   0  0
    1.2990    0.7500    0.0000 C   0  0
    2.5972    1.5031    0.0000 S   0  0
    2.5951    3.0039    0.0000 C   0  0
    3.8915    3.7585    0.0000 C   0  0
    3.8863    5.2585    0.0000 C   0  0
    5.1827    6.0130    0.0000 C   0  0
    2.5847    6.0040    0.0000 C   0  0
    1.2883    5.2495    0.0000 C   0  0
   -0.0134    5.9950    0.0000 C   0  0
    1.2934    3.7495    0.0000 C   0  0
    0.0000    1.5000    0.0000 N   0  0
   -0.0031    3.0008    0.0000 C   0  0
   -1.3039    3.7494    0.0000 C   0  0
   -1.3070    5.2502    0.0000 C   0  0
   -2.6078    5.9988    0.0000 C   0  0
   -2.6109    7.4996    0.0000 C   0  0
   -1.3132    8.2519    0.0000 O   0  0
   -3.9118    8.2481    0.0000 O   0  0
   -3.9149    9.7481    0.0000 C   0  0
   -1.2990    0.7500    0.0000 C   0  0
   -2.5981    1.5000    0.0000 O   0  0
   -1.2990   -0.7500    0.0000 N   0  0
    0.0000   -1.5000    0.0000 C   0  0
    0.0000   -3.0000    0.0000 O   0  0
  1  2  1  0
  2  3  1  0
  3  4  2  0
  4  5  1  0
  5  6  1  0
  6  7  2  0
  7  8  1  0
  8  9  1  0
  8 10  2  0
 10 11  1  0
 11 12  1  0
 11 13  2  0
 13  6  1  0
  4 14  1  0
 14 15  1  0
 15 16  1  0
 16 17  1  0
 17 18  1  0
 18 19  1  0
 19 20  2  0
 19 21  1  0
 21 22  1  0
 14 23  1  0
 23 24  2  0
 23 25  1  0
 25 26  1  0
 26  3  1  0
 26 27  2  0
M  END
> <Smiles>
CCc1c(Sc2cc(C)cc(C)c2)n(CCCCC(=O)OC)c(=O)[nH]c1=O

> <IC50_uM>
0.025

> <pIC50>
7.602059991

> <Activity>
1

$$$$

  SciTegic10102310092D

 24 27  0  0  0  0            999 V2000
    2.5840   -8.2829    0.0000 C   0  0
    2.8570   -6.8080    0.0000 C   0  0
    4.2107   -6.1619    0.0000 C   0  0
    4.0146   -4.6747    0.0000 N   0  0
    2.5536   -4.4230    0.0000 C   0  0
    1.8032   -3.1233    0.0000 C   0  0
    2.4133   -1.7530    0.0000 N   0  0
    1.2990   -0.7500    0.0000 C   0  0
    1.2990    0.7500    0.0000 C   0  0
    0.0000    1.5000    0.0000 C   0  0
   -1.2990    0.7500    0.0000 C   0  0
   -2.5981    1.5000    0.0000 Br  0  0
   -1.2990   -0.7500    0.0000 C   0  0
    0.0000   -1.5000    0.0000 C   0  0
    0.3114   -2.9665    0.0000 C   0  0
   -0.6913   -4.0797    0.0000 S   0  0
   -0.2276   -5.5062    0.0000 O   0  0
    0.7759   -4.3916    0.0000 O   0  0
   -2.1595   -3.7683    0.0000 N   0  0
   -3.2523   -4.7770    0.0000 C   0  0
   -4.5516   -4.0276    0.0000 C   0  0
   -4.2404   -2.5602    0.0000 C   0  0
   -2.7487   -2.4028    0.0000 C   0  0
    1.8242   -5.7201    0.0000 N   0  0
  1  2  1  0
  2  3  2  0
  3  4  1  0
  4  5  2  0
  5  6  1  0
  6  7  1  0
  7  8  1  0
  8  9  2  0
  9 10  1  0
 10 11  2  0
 11 12  1  0
 11 13  1  0
 13 14  2  0
 14  8  1  0
 14 15  1  0
 15  6  2  0
 15 16  1  0
 16 17  2  0
 16 18  2  0
 16 19  1  0
 19 20  1  0
 20 21  1  0
 21 22  1  0
 22 23  1  0
 23 19  1  0
  5 24  1  0
 24  2  1  0
M  END
> <Smiles>
Cc1cnc(-c2[nH]c3ccc(Br)cc3c2S(=O)(=O)N2CCCC2)[nH]1

> <IC50_uM>
0.025

> <pIC50>
7.602059991

> <Activity>
1

$$$$

  SciTegic10102310092D

 33 36  0  0  0  0            999 V2000
    3.8805   -1.4410    0.0000 O   0  0
    2.4133   -1.7530    0.0000 C   0  0
    1.2990   -0.7500    0.0000 C   0  0
    1.2990    0.7500    0.0000 C   0  0
    0.0000    1.5000    0.0000 C   0  0
   -1.2990    0.7500    0.0000 C   0  0
   -1.2990   -0.7500    0.0000 C   0  0
    0.0000   -1.5000    0.0000 C   0  0
    0.3114   -2.9665    0.0000 C   0  0
   -0.6923   -4.0811    0.0000 O   0  0
    1.8032   -3.1233    0.0000 N   0  0
    2.5551   -4.4192    0.0000 C   0  0
    4.0559   -4.4171    0.0000 C   0  0
    4.8090   -5.7153    0.0000 O   0  0
    6.3098   -5.7131    0.0000 C   0  0
    7.0575   -4.4128    0.0000 S   0  0
    7.0629   -7.0113    0.0000 N   0  0
    8.5637   -7.0091    0.0000 C   0  0
    9.3115   -5.7088    0.0000 O   0  0
    9.3168   -8.3073    0.0000 C   0  0
   10.8169   -8.3074    0.0000 C   0  0
   11.5669   -9.6064    0.0000 C   0  0
   10.8170  -10.9054    0.0000 C   0  0
   11.5670  -12.2044    0.0000 Cl  0  0
    9.3170  -10.9055    0.0000 C   0  0
    8.5669   -9.6065    0.0000 C   0  0
    6.3148   -8.3123    0.0000 C   0  0
    7.0653   -9.6112    0.0000 C   0  0
    6.3158  -10.9105    0.0000 C   0  0
    4.8158  -10.9111    0.0000 C   0  0
    4.0663  -12.2104    0.0000 Cl  0  0
    4.0653   -9.6124    0.0000 C   0  0
    4.8148   -8.3130    0.0000 C   0  0
  1  2  2  0
  2  3  1  0
  3  4  2  0
  4  5  1  0
  5  6  2  0
  6  7  1  0
  7  8  2  0
  8  3  1  0
  8  9  1  0
  9 10  2  0
  9 11  1  0
 11  2  1  0
 11 12  1  0
 12 13  1  0
 13 14  1  0
 14 15  1  0
 15 16  2  0
 15 17  1  0
 17 18  1  0
 18 19  2  0
 18 20  1  0
 20 21  2  0
 21 22  1  0
 22 23  2  0
 23 24  1  0
 23 25  1  0
 25 26  2  0
 26 20  1  0
 17 27  1  0
 27 28  2  0
 28 29  1  0
 29 30  2  0
 30 31  1  0
 30 32  1  0
 32 33  2  0
 33 27  1  0
M  END
> <Smiles>
O=C1c2ccccc2C(=O)N1CCOC(=S)N(C(=O)c1ccc(Cl)cc1)c1ccc(Cl)cc1

> <IC50_uM>
0.025

> <pIC50>
7.602059991

> <Activity>
1

$$$$

  SciTegic10102310092D

 30 32  0  0  0  0            999 V2000
    3.1676   -7.5606    0.0000 C   0  0
    1.7006   -7.2475    0.0000 C   0  0
    0.6960   -8.3614    0.0000 C   0  0
   -0.7710   -8.0483    0.0000 C   0  0
   -1.7756   -9.1622    0.0000 C   0  0
   -1.2333   -6.6213    0.0000 C   0  0
   -0.2287   -5.5075    0.0000 C   0  0
   -0.6913   -4.0797    0.0000 S   0  0
   -2.1584   -3.7671    0.0000 O   0  0
   -1.6957   -5.1937    0.0000 O   0  0
    0.3114   -2.9665    0.0000 C   0  0
    1.8032   -3.1233    0.0000 C   0  0
    2.5551   -4.4192    0.0000 C   0  0
    1.8074   -5.7196    0.0000 O   0  0
    4.0559   -4.4171    0.0000 N   0  0
    4.8090   -5.7153    0.0000 C   0  0
    6.3098   -5.7131    0.0000 C   0  0
    7.0629   -7.0113    0.0000 S   0  0
    7.8150   -8.3091    0.0000 N   0  0
    8.5629   -7.0091    0.0000 O   0  0
    6.3152   -8.3116    0.0000 O   0  0
    2.4133   -1.7530    0.0000 N   0  0
    1.2990   -0.7500    0.0000 C   0  0
    1.2990    0.7500    0.0000 C   0  0
    0.0000    1.5000    0.0000 C   0  0
   -1.2990    0.7500    0.0000 C   0  0
   -2.5981    1.5000    0.0000 Cl  0  0
   -1.2990   -0.7500    0.0000 C   0  0
    0.0000   -1.5000    0.0000 C   0  0
    1.2383   -5.8206    0.0000 C   0  0
  1  2  1  0
  2  3  2  0
  3  4  1  0
  4  5  1  0
  4  6  2  0
  6  7  1  0
  7  8  1  0
  8  9  2  0
  8 10  2  0
  8 11  1  0
 11 12  2  0
 12 13  1  0
 13 14  2  0
 13 15  1  0
 15 16  1  0
 16 17  1  0
 17 18  1  0
 18 19  1  0
 18 20  2  0
 18 21  2  0
 12 22  1  0
 22 23  1  0
 23 24  2  0
 24 25  1  0
 25 26  2  0
 26 27  1  0
 26 28  1  0
 28 29  2  0
 29 11  1  0
 29 23  1  0
  7 30  2  0
 30  2  1  0
M  END
> <Smiles>
Cc1cc(C)cc(S(=O)(=O)c2c(C(=O)NCCS(N)(=O)=O)[nH]c3ccc(Cl)cc23)c1

> <IC50_uM>
0.025

> <pIC50>
7.602059991

> <Activity>
1

$$$$

  SciTegic10102310092D

 36 39  0  0  0  0            999 V2000
    2.5981   -1.5000    0.0000 C   0  0
    1.2990   -0.7500    0.0000 C   0  0
    1.2990    0.7500    0.0000 C   0  0
    0.0000    1.5000    0.0000 C   0  0
    0.0000    3.0008    0.0000 C   0  0
    0.0000    4.5008    0.0000 N   0  0
   -1.2990    0.7500    0.0000 C   0  0
   -1.2990   -0.7500    0.0000 C   0  0
   -2.5981   -1.5000    0.0000 C   0  0
    0.0000   -1.5000    0.0000 C   0  0
    0.0031   -3.0008    0.0000 O   0  0
    1.3039   -3.7494    0.0000 C   0  0
    1.3092   -5.2494    0.0000 C   0  0
    2.6108   -5.9949    0.0000 C   0  0
    3.9073   -5.2404    0.0000 N   0  0
    3.9021   -3.7404    0.0000 C   0  0
    5.1977   -2.9829    0.0000 N   0  0
    5.1903   -1.4820    0.0000 C   0  0
    6.4841   -0.7230    0.0000 C   0  0
    6.4738    0.7770    0.0000 C   0  0
    5.1696    1.5180    0.0000 N   0  0
    5.1561    3.0188    0.0000 C   0  0
    3.8501    3.7583    0.0000 C   0  0
    2.5588    2.9949    0.0000 C   0  0
    1.2521    3.7314    0.0000 C   0  0
    1.2365    5.2313    0.0000 C   0  0
   -0.0709    5.9682    0.0000 S   0  0
   -0.0860    7.4681    0.0000 N   0  0
   -1.3626    5.2056    0.0000 O   0  0
   -1.3773    6.7053    0.0000 O   0  0
    2.5277    5.9947    0.0000 C   0  0
    3.8345    5.2582    0.0000 C   0  0
    5.1256    6.0217    0.0000 Cl  0  0
    3.8757    0.7590    0.0000 C   0  0
    3.8861   -0.7410    0.0000 C   0  0
    2.6004   -2.9949    0.0000 N   0  0
  1  2  1  0
  2  3  2  0
  3  4  1  0
  4  5  1  0
  5  6  3  0
  4  7  2  0
  7  8  1  0
  8  9  1  0
  8 10  2  0
 10  2  1  0
 10 11  1  0
 11 12  1  0
 12 13  2  0
 13 14  1  0
 14 15  2  0
 15 16  1  0
 16 17  1  0
 17 18  1  0
 18 19  1  0
 19 20  1  0
 20 21  1  0
 21 22  1  0
 22 23  1  0
 23 24  2  0
 24 25  1  0
 25 26  2  0
 26 27  1  0
 27 28  1  0
 27 29  2  0
 27 30  2  0
 26 31  1  0
 31 32  2  0
 32 23  1  0
 32 33  1  0
 21 34  1  0
 34 35  1  0
 35 18  1  0
 16 36  2  0
 36 12  1  0
M  END
> <Smiles>
Cc1cc(C#N)cc(C)c1Oc1ccnc(NC2CCN(Cc3ccc(S(N)(=O)=O)cc3Cl)CC2)n1

> <IC50_uM>
0.025

> <pIC50>
7.602059991

> <Activity>
1

$$$$

  SciTegic10102310092D

 26 28  0  0  0  0            999 V2000
    2.5981   -1.5000    0.0000 O   0  0
    1.2990   -0.7500    0.0000 C   0  0
    1.2990    0.7500    0.0000 C   0  0
    0.0000    1.5000    0.0000 C   0  0
   -0.0031    3.0008    0.0000 C   0  0
   -1.3039    3.7494    0.0000 C   0  0
   -1.3092    5.2494    0.0000 C   0  0
   -2.6108    5.9949    0.0000 C   0  0
   -3.9073    5.2404    0.0000 C   0  0
   -5.2096    5.9863    0.0000 C   0  0
   -5.2172    7.4863    0.0000 C   0  0
   -6.5200    8.2297    0.0000 C   0  0
   -7.8153    7.4732    0.0000 C   0  0
   -7.8077    5.9732    0.0000 C   0  0
   -9.1036    5.2162    0.0000 C   0  0
  -10.4069    5.9589    0.0000 F   0  0
   -9.0956    3.7163    0.0000 F   0  0
  -10.3985    4.4591    0.0000 F   0  0
   -6.5049    5.2298    0.0000 C   0  0
   -3.9021    3.7404    0.0000 C   0  0
   -2.6005    2.9949    0.0000 C   0  0
   -1.2990    0.7500    0.0000 N   0  0
   -1.2990   -0.7500    0.0000 C   0  0
   -2.5981   -1.5000    0.0000 O   0  0
    0.0000   -1.5000    0.0000 N   0  0
    0.0000   -3.0000    0.0000 O   0  0
  1  2  2  0
  2  3  1  0
  3  4  2  0
  4  5  1  0
  5  6  1  0
  6  7  2  0
  7  8  1  0
  8  9  2  0
  9 10  1  0
 10 11  2  0
 11 12  1  0
 12 13  2  0
 13 14  1  0
 14 15  1  0
 15 16  1  0
 15 17  1  0
 15 18  1  0
 14 19  2  0
 19 10  1  0
  9 20  1  0
 20 21  2  0
 21  6  1  0
  4 22  1  0
 22 23  1  0
 23 24  2  0
 23 25  1  0
 25  2  1  0
 25 26  1  0
M  END
> <Smiles>
O=c1cc(Cc2ccc(-c3cccc(C(F)(F)F)c3)cc2)[nH]c(=O)n1O

> <IC50_uM>
0.025

> <pIC50>
7.602059991

> <Activity>
1

$$$$

  SciTegic10102310092D

 24 25  0  0  0  0            999 V2000
    3.8912   -5.2570    0.0000 C   0  0
    3.8933   -3.7570    0.0000 C   0  0
    2.5951   -3.0039    0.0000 C   0  0
    2.5973   -1.5031    0.0000 N   0  0
    3.8976   -0.7553    0.0000 C   0  0
    1.2990   -0.7500    0.0000 C   0  0
    1.2990    0.7500    0.0000 N   0  0
    0.0000    1.5000    0.0000 C   0  0
    0.0031    3.0008    0.0000 C   0  0  3  0  0  0
   -1.2938    3.7562    0.0000 O   0  0
   -1.2891    5.2562    0.0000 C   0  0
    1.3039    3.7494    0.0000 C   0  0
    1.3092    5.2494    0.0000 C   0  0
    0.0127    6.0039    0.0000 F   0  0
    2.6108    5.9949    0.0000 C   0  0
    3.9072    5.2405    0.0000 C   0  0
    3.9020    3.7405    0.0000 C   0  0
    2.6004    2.9949    0.0000 C   0  0
    2.5953    1.4950    0.0000 Cl  0  0
   -1.2990    0.7500    0.0000 C   0  0
   -2.5981    1.5000    0.0000 C   0  0
   -1.2990   -0.7500    0.0000 C   0  0
   -2.5981   -1.5000    0.0000 O   0  0
    0.0000   -1.5000    0.0000 N   0  0
  1  2  1  0
  2  3  1  0
  3  4  1  0
  4  5  1  0
  4  6  1  0
  6  7  2  0
  7  8  1  0
  8  9  1  0
  9 10  1  4
 10 11  1  0
  9 12  1  0
 12 13  2  0
 13 14  1  0
 13 15  1  0
 15 16  2  0
 16 17  1  0
 17 18  2  0
 18 12  1  0
 18 19  1  0
  8 20  2  0
 20 21  1  0
 20 22  1  0
 22 23  2  0
 22 24  1  0
 24  6  1  0
M  END
> <Smiles>
CCCN(C)c1nc(C(OC)c2c(F)cccc2Cl)c(C)c(=O)[nH]1

> <IC50_uM>
0.026

> <pIC50>
7.585026652

> <Activity>
1

$$$$

  SciTegic10102310092D

 36 39  0  0  0  0            999 V2000
    5.1978   -4.5012    0.0000 C   0  0
    5.1983   -3.0012    0.0000 C   0  0
    3.8991   -3.7510    0.0000 C   0  0
    3.8985   -2.2508    0.0000 C   0  0
    2.5988   -1.5004    0.0000 C   0  0
    1.2990   -0.7500    0.0000 C   0  0
    1.2990    0.7500    0.0000 C   0  0
    0.0000    1.5000    0.0000 C   0  0
   -1.2990    0.7500    0.0000 C   0  0
   -2.5973    1.5031    0.0000 N   0  0
   -2.5951    3.0039    0.0000 C   0  0
   -1.2948    3.7516    0.0000 O   0  0
   -3.8933    3.7570    0.0000 C   0  0
   -3.8912    5.2578    0.0000 S   0  0
   -5.1894    6.0109    0.0000 C   0  0
   -6.5408    5.3898    0.0000 N   0  0
   -7.5445    6.5046    0.0000 N   0  0
   -6.7945    7.8036    0.0000 N   0  0
   -5.3273    7.4917    0.0000 N   0  0
   -4.2061    8.4893    0.0000 C   0  0
   -4.6302    9.9300    0.0000 C   0  0
   -3.5923   11.0129    0.0000 C   0  0
   -2.1355   10.6554    0.0000 C   0  0
   -1.0970   11.7388    0.0000 C   0  0
   -0.8006   13.1292    0.0000 C   0  0
    0.2807   12.0895    0.0000 C   0  0
   -1.7166    9.2151    0.0000 C   0  0
   -2.7546    8.1322    0.0000 C   0  0
   -2.3362    6.6917    0.0000 Cl  0  0
   -1.2990   -0.7500    0.0000 C   0  0
   -2.5981   -1.5000    0.0000 Cl  0  0
    0.0000   -1.5000    0.0000 C   0  0
    6.4985   -2.2516    0.0000 C   0  0
    7.7983   -3.0020    0.0000 C   0  0
    9.0978   -2.2529    0.0000 O   0  0
    7.7978   -4.5020    0.0000 O   0  0
  1  2  1  0
  2  3  1  0
  2  4  1  0
  4  5  3  0
  5  6  1  0
  6  7  2  0
  7  8  1  0
  8  9  2  0
  9 10  1  0
 10 11  1  0
 11 12  2  0
 11 13  1  0
 13 14  1  0
 14 15  1  0
 15 16  2  0
 16 17  1  0
 17 18  2  0
 18 19  1  0
 19 15  1  0
 19 20  1  0
 20 21  2  0
 21 22  1  0
 22 23  2  0
 23 24  1  0
 24 25  1  0
 25 26  1  0
 26 24  1  0
 23 27  1  0
 27 28  2  0
 28 20  1  0
 28 29  1  0
  9 30  1  0
 30 31  1  0
 30 32  2  0
 32  6  1  0
  2 33  1  0
 33 34  1  0
 34 35  2  0
 34 36  1  0
M  END
> <Smiles>
CC(C)(C#Cc1ccc(NC(=O)CSc2nnnn2-c2ccc(C3CC3)cc2Cl)c(Cl)c1)CC(=O)O

> <IC50_uM>
0.026

> <pIC50>
7.585026652

> <Activity>
1

$$$$

  SciTegic10102310092D

 30 33  0  0  0  0            999 V2000
    3.1676   -7.5606    0.0000 C   0  0
    1.7006   -7.2475    0.0000 C   0  0
    0.6960   -8.3614    0.0000 C   0  0
   -0.7710   -8.0483    0.0000 C   0  0
   -1.7756   -9.1622    0.0000 C   0  0
   -1.2333   -6.6213    0.0000 C   0  0
   -0.2287   -5.5075    0.0000 C   0  0
   -0.6913   -4.0797    0.0000 S   0  0
   -2.1584   -3.7671    0.0000 O   0  0
   -1.6957   -5.1937    0.0000 O   0  0
    0.3114   -2.9665    0.0000 C   0  0
    1.8032   -3.1233    0.0000 C   0  0
    2.5551   -4.4192    0.0000 C   0  0
    1.8074   -5.7196    0.0000 O   0  0
    4.0559   -4.4171    0.0000 N   0  0
    4.8090   -5.7153    0.0000 C   0  0
    6.3098   -5.7131    0.0000 N   0  0
    7.1739   -6.9236    0.0000 C   0  0
    8.5988   -6.4551    0.0000 C   0  0
    8.5936   -4.9551    0.0000 C   0  0
    7.1654   -4.4965    0.0000 C   0  0
    2.4133   -1.7530    0.0000 N   0  0
    1.2990   -0.7500    0.0000 C   0  0
    1.2990    0.7500    0.0000 C   0  0
    0.0000    1.5000    0.0000 C   0  0
   -1.2990    0.7500    0.0000 C   0  0
   -2.5981    1.5000    0.0000 Cl  0  0
   -1.2990   -0.7500    0.0000 C   0  0
    0.0000   -1.5000    0.0000 C   0  0
    1.2383   -5.8206    0.0000 C   0  0
  1  2  1  0
  2  3  2  0
  3  4  1  0
  4  5  1  0
  4  6  2  0
  6  7  1  0
  7  8  1  0
  8  9  2  0
  8 10  2  0
  8 11  1  0
 11 12  2  0
 12 13  1  0
 13 14  2  0
 13 15  1  0
 15 16  1  0
 16 17  1  0
 17 18  1  0
 18 19  1  0
 19 20  1  0
 20 21  1  0
 21 17  1  0
 12 22  1  0
 22 23  1  0
 23 24  2  0
 24 25  1  0
 25 26  2  0
 26 27  1  0
 26 28  1  0
 28 29  2  0
 29 11  1  0
 29 23  1  0
  7 30  2  0
 30  2  1  0
M  END
> <Smiles>
Cc1cc(C)cc(S(=O)(=O)c2c(C(=O)NCN3CCCC3)[nH]c3ccc(Cl)cc23)c1

> <IC50_uM>
0.026

> <pIC50>
7.585026652

> <Activity>
1

$$$$

  SciTegic10102310092D

 28 30  0  0  0  0            999 V2000
    3.1676   -7.5606    0.0000 C   0  0
    1.7006   -7.2475    0.0000 C   0  0
    0.6960   -8.3614    0.0000 C   0  0
   -0.7710   -8.0483    0.0000 C   0  0
   -1.7756   -9.1622    0.0000 C   0  0
   -1.2333   -6.6213    0.0000 C   0  0
   -0.2287   -5.5075    0.0000 C   0  0
   -0.6913   -4.0797    0.0000 S   0  0
   -2.1584   -3.7671    0.0000 O   0  0
   -1.6957   -5.1937    0.0000 O   0  0
    0.3114   -2.9665    0.0000 C   0  0
    1.8032   -3.1233    0.0000 C   0  0
    2.5551   -4.4192    0.0000 C   0  0
    1.8074   -5.7196    0.0000 O   0  0
    4.0559   -4.4171    0.0000 N   0  0
    4.8090   -5.7153    0.0000 C   0  0
    6.3098   -5.7131    0.0000 C   0  0
    7.0575   -4.4127    0.0000 N   0  0
    7.0625   -7.0106    0.0000 O   0  0
    2.4133   -1.7530    0.0000 N   0  0
    1.2990   -0.7500    0.0000 C   0  0
    1.2990    0.7500    0.0000 C   0  0
    0.0000    1.5000    0.0000 C   0  0
   -1.2990    0.7500    0.0000 C   0  0
   -2.5981    1.5000    0.0000 Br  0  0
   -1.2990   -0.7500    0.0000 C   0  0
    0.0000   -1.5000    0.0000 C   0  0
    1.2383   -5.8206    0.0000 C   0  0
  1  2  1  0
  2  3  2  0
  3  4  1  0
  4  5  1  0
  4  6  2  0
  6  7  1  0
  7  8  1  0
  8  9  2  0
  8 10  2  0
  8 11  1  0
 11 12  2  0
 12 13  1  0
 13 14  2  0
 13 15  1  0
 15 16  1  0
 16 17  1  0
 17 18  1  0
 17 19  2  0
 12 20  1  0
 20 21  1  0
 21 22  2  0
 22 23  1  0
 23 24  2  0
 24 25  1  0
 24 26  1  0
 26 27  2  0
 27 11  1  0
 27 21  1  0
  7 28  2  0
 28  2  1  0
M  END
> <Smiles>
Cc1cc(C)cc(S(=O)(=O)c2c(C(=O)NCC(N)=O)[nH]c3ccc(Br)cc23)c1

> <IC50_uM>
0.026

> <pIC50>
7.585026652

> <Activity>
1

$$$$

  SciTegic10102310092D

 29 31  0  0  1  0            999 V2000
    3.1676   -7.5606    0.0000 C   0  0
    1.7006   -7.2475    0.0000 C   0  0
    0.6960   -8.3614    0.0000 C   0  0
   -0.7710   -8.0483    0.0000 C   0  0
   -1.7756   -9.1622    0.0000 C   0  0
   -1.2333   -6.6213    0.0000 C   0  0
   -0.2287   -5.5075    0.0000 C   0  0
   -0.6913   -4.0797    0.0000 S   0  0
   -2.1584   -3.7671    0.0000 O   0  0
   -1.6957   -5.1937    0.0000 O   0  0
    0.3114   -2.9665    0.0000 C   0  0
    1.8032   -3.1233    0.0000 C   0  0
    2.5551   -4.4192    0.0000 C   0  0
    1.8074   -5.7196    0.0000 O   0  0
    4.0559   -4.4171    0.0000 N   0  0
    4.8090   -5.7153    0.0000 C   0  0  1  0  0  0
    4.0613   -7.0156    0.0000 C   0  0
    6.3098   -5.7131    0.0000 C   0  0
    7.0575   -4.4127    0.0000 N   0  0
    7.0625   -7.0106    0.0000 O   0  0
    2.4133   -1.7530    0.0000 N   0  0
    1.2990   -0.7500    0.0000 C   0  0
    1.2990    0.7500    0.0000 C   0  0
    0.0000    1.5000    0.0000 C   0  0
   -1.2990    0.7500    0.0000 C   0  0
   -2.5981    1.5000    0.0000 Cl  0  0
   -1.2990   -0.7500    0.0000 C   0  0
    0.0000   -1.5000    0.0000 C   0  0
    1.2383   -5.8206    0.0000 C   0  0
  1  2  1  0
  2  3  2  0
  3  4  1  0
  4  5  1  0
  4  6  2  0
  6  7  1  0
  7  8  1  0
  8  9  2  0
  8 10  2  0
  8 11  1  0
 11 12  2  0
 12 13  1  0
 13 14  2  0
 13 15  1  0
 15 16  1  0
 16 17  1  6
 16 18  1  0
 18 19  1  0
 18 20  2  0
 12 21  1  0
 21 22  1  0
 22 23  2  0
 23 24  1  0
 24 25  2  0
 25 26  1  0
 25 27  1  0
 27 28  2  0
 28 11  1  0
 28 22  1  0
  7 29  2  0
 29  2  1  0
M  END
> <Smiles>
Cc1cc(C)cc(S(=O)(=O)c2c(C(=O)N[C@@H](C)C(N)=O)[nH]c3ccc(Cl)cc23)c1

> <IC50_uM>
0.026

> <pIC50>
7.585026652

> <Activity>
1

$$$$

  SciTegic10102310092D

 27 29  0  0  0  0            999 V2000
    3.8976   -0.7553    0.0000 O   0  0
    2.5973   -1.5031    0.0000 C   0  0
    1.2990   -0.7500    0.0000 C   0  0
    1.2990    0.7500    0.0000 C   0  0
    0.0000    1.5000    0.0000 C   0  0
   -1.2990    0.7500    0.0000 C   0  0
   -2.5987    1.5004    0.0000 C   0  0
   -2.6012    3.0004    0.0000 C   0  0
   -3.9015    3.7484    0.0000 C   0  0
   -5.1993    2.9963    0.0000 C   0  0
   -6.5002    3.7446    0.0000 C   0  0
   -6.5036    5.2446    0.0000 F   0  0
   -7.7978    2.9922    0.0000 F   0  0
   -7.8008    4.4919    0.0000 F   0  0
   -5.1969    1.4963    0.0000 C   0  0
   -3.8967    0.7484    0.0000 C   0  0
   -1.2990   -0.7500    0.0000 C   0  0
    0.0000   -1.5000    0.0000 C   0  0
    2.5951   -3.0039    0.0000 C   0  0
    3.8915   -3.7585    0.0000 C   0  0
    3.8864   -5.2585    0.0000 C   0  0
    5.1828   -6.0130    0.0000 O   0  0
    2.5847   -6.0040    0.0000 N   0  0
    2.5795   -7.5040    0.0000 O   0  0
    1.2883   -5.2495    0.0000 C   0  0
   -0.0133   -5.9950    0.0000 O   0  0
    1.2935   -3.7495    0.0000 N   0  0
  1  2  2  0
  2  3  1  0
  3  4  2  0
  4  5  1  0
  5  6  2  0
  6  7  1  0
  7  8  2  0
  8  9  1  0
  9 10  2  0
 10 11  1  0
 11 12  1  0
 11 13  1  0
 11 14  1  0
 10 15  1  0
 15 16  2  0
 16  7  1  0
  6 17  1  0
 17 18  2  0
 18  3  1  0
  2 19  1  0
 19 20  2  0
 20 21  1  0
 21 22  2  0
 21 23  1  0
 23 24  1  0
 23 25  1  0
 25 26  2  0
 25 27  1  0
 27 19  1  0
M  END
> <Smiles>
O=C(c1ccc(-c2ccc(C(F)(F)F)cc2)cc1)c1cc(=O)n(O)c(=O)[nH]1

> <IC50_uM>
0.026

> <pIC50>
7.585026652

> <Activity>
1

$$$$

  SciTegic10102310092D

 36 40  0  0  0  0            999 V2000
    2.5923    1.5001    0.0000 C   0  0
    3.8939    0.7546    0.0000 C   0  0
    5.1903    1.5091    0.0000 C   0  0
    6.4920    0.7636    0.0000 C   0  0
    7.7907    1.5158    0.0000 C   0  0
    9.0920    0.7680    0.0000 C   0  0
   10.3907    1.5203    0.0000 C   0  0
   11.6886    2.2721    0.0000 N   0  0
    6.4972   -0.7364    0.0000 C   0  0
    5.2007   -1.4909    0.0000 C   0  0
    5.2059   -2.9909    0.0000 C   0  0
    3.8990   -0.7455    0.0000 C   0  0
    2.6003   -1.4977    0.0000 O   0  0
    1.2990   -0.7500    0.0000 C   0  0
    1.2990    0.7500    0.0000 N   0  0
    0.0000    1.5000    0.0000 C   0  0
   -0.0031    3.0008    0.0000 N   0  0
   -1.3039    3.7494    0.0000 C   0  0
   -1.3092    5.2494    0.0000 C   0  0
   -2.6108    5.9949    0.0000 C   0  0
   -3.9073    5.2404    0.0000 N   0  0
   -5.2112    5.9836    0.0000 C   0  0
   -6.5072    5.2269    0.0000 C   0  0
   -7.8115    5.9678    0.0000 C   0  0
   -9.1053    5.2088    0.0000 C   0  0
   -9.0949    3.7089    0.0000 C   0  0
   -7.7907    2.9679    0.0000 C   0  0
   -6.4969    3.7269    0.0000 N   0  0
   -3.9021    3.7404    0.0000 C   0  0
   -2.6005    2.9949    0.0000 C   0  0
   -1.2990    0.7500    0.0000 N   0  0
   -1.2990   -0.7500    0.0000 C   0  0
   -2.4133   -1.7530    0.0000 C   0  0
   -1.8032   -3.1233    0.0000 C   0  0
   -0.3114   -2.9665    0.0000 S   0  0
    0.0000   -1.5000    0.0000 C   0  0
  1  2  1  0
  2  3  2  0
  3  4  1  0
  4  5  1  0
  5  6  2  0
  6  7  1  0
  7  8  3  0
  4  9  2  0
  9 10  1  0
 10 11  1  0
 10 12  2  0
 12  2  1  0
 12 13  1  0
 13 14  1  0
 14 15  2  0
 15 16  1  0
 16 17  1  0
 17 18  1  0
 18 19  1  0
 19 20  1  0
 20 21  1  0
 21 22  1  0
 22 23  1  0
 23 24  2  0
 24 25  1  0
 25 26  2  0
 26 27  1  0
 27 28  2  0
 28 23  1  0
 21 29  1  0
 29 30  1  0
 30 18  1  0
 16 31  2  0
 31 32  1  0
 32 33  1  0
 33 34  2  0
 34 35  1  0
 35 36  1  0
 36 14  1  0
 36 32  2  0
M  END
> <Smiles>
Cc1cc(/C=C/C#N)cc(C)c1Oc1nc(NC2CCN(Cc3ccccn3)CC2)nc2ccsc12

> <IC50_uM>
0.0267

> <pIC50>
7.573488739

> <Activity>
1

$$$$

  SciTegic10102310092D

 32 34  0  0  0  0            999 V2000
    3.8983   -0.7512    0.0000 C   0  0
    2.5988   -1.5004    0.0000 C   0  0
    2.5983   -3.0004    0.0000 C   0  0
    3.8975   -2.2510    0.0000 C   0  0
    1.2990   -0.7500    0.0000 C   0  0
    1.2990    0.7500    0.0000 C   0  0
    0.0000    1.5000    0.0000 C   0  0
   -1.2990    0.7500    0.0000 C   0  0
   -2.5987    1.5004    0.0000 N   0  0
   -3.9492    0.8772    0.0000 N   0  0
   -4.9546    1.9903    0.0000 N   0  0
   -4.2067    3.2905    0.0000 N   0  0
   -2.7390    2.9810    0.0000 C   0  0
   -1.6216    3.9790    0.0000 S   0  0
   -1.9268    5.4485    0.0000 C   0  0
   -0.8074    6.4482    0.0000 C   0  0
    0.6172    5.9785    0.0000 O   0  0
   -1.1126    7.9177    0.0000 N   0  0
    0.0068    8.9174    0.0000 C   0  0
    1.4306    8.4453    0.0000 C   0  0
    2.5514    9.4422    0.0000 C   0  0
    2.2485   10.9113    0.0000 C   0  0
    3.3699   11.9088    0.0000 S   0  0
    3.0665   13.3777    0.0000 C   0  0
    4.7939   11.4375    0.0000 O   0  0
    4.4902   12.9062    0.0000 O   0  0
    0.8247   11.3835    0.0000 C   0  0
   -0.2961   10.3866    0.0000 C   0  0
   -1.7198   10.8588    0.0000 Cl  0  0
   -1.2990   -0.7500    0.0000 C   0  0
   -2.5981   -1.5000    0.0000 Cl  0  0
    0.0000   -1.5000    0.0000 C   0  0
  1  2  1  0
  2  3  1  0
  2  4  1  0
  2  5  1  0
  5  6  2  0
  6  7  1  0
  7  8  2  0
  8  9  1  0
  9 10  1  0
 10 11  2  0
 11 12  1  0
 12 13  2  0
 13  9  1  0
 13 14  1  0
 14 15  1  0
 15 16  1  0
 16 17  2  0
 16 18  1  0
 18 19  1  0
 19 20  2  0
 20 21  1  0
 21 22  2  0
 22 23  1  0
 23 24  1  0
 23 25  2  0
 23 26  2  0
 22 27  1  0
 27 28  2  0
 28 19  1  0
 28 29  1  0
  8 30  1  0
 30 31  1  0
 30 32  2  0
 32  5  1  0
M  END
> <Smiles>
CC(C)(C)c1ccc(-n2nnnc2SCC(=O)Nc2ccc(S(C)(=O)=O)cc2Cl)c(Cl)c1

> <IC50_uM>
0.027

> <pIC50>
7.568636236

> <Activity>
1

$$$$

  SciTegic10102310092D

 24 26  0  0  0  0            999 V2000
    3.8976   -0.7553    0.0000 O   0  0
    2.5973   -1.5031    0.0000 C   0  0
    1.2990   -0.7500    0.0000 C   0  0
    1.2990    0.7500    0.0000 C   0  0
    0.0000    1.5000    0.0000 C   0  0
   -1.2990    0.7500    0.0000 C   0  0
   -2.5987    1.5004    0.0000 C   0  0
   -2.6012    3.0004    0.0000 C   0  0
   -3.9015    3.7484    0.0000 C   0  0
   -5.1993    2.9963    0.0000 C   0  0
   -6.4995    3.7442    0.0000 F   0  0
   -5.1969    1.4963    0.0000 C   0  0
   -3.8967    0.7484    0.0000 C   0  0
   -1.2990   -0.7500    0.0000 C   0  0
    0.0000   -1.5000    0.0000 C   0  0
    2.5951   -3.0039    0.0000 C   0  0
    3.8915   -3.7585    0.0000 C   0  0
    3.8864   -5.2585    0.0000 C   0  0
    5.1828   -6.0130    0.0000 O   0  0
    2.5847   -6.0040    0.0000 N   0  0
    2.5795   -7.5040    0.0000 O   0  0
    1.2883   -5.2495    0.0000 C   0  0
   -0.0133   -5.9950    0.0000 O   0  0
    1.2935   -3.7495    0.0000 N   0  0
  1  2  2  0
  2  3  1  0
  3  4  2  0
  4  5  1  0
  5  6  2  0
  6  7  1  0
  7  8  2  0
  8  9  1  0
  9 10  2  0
 10 11  1  0
 10 12  1  0
 12 13  2  0
 13  7  1  0
  6 14  1  0
 14 15  2  0
 15  3  1  0
  2 16  1  0
 16 17  2  0
 17 18  1  0
 18 19  2  0
 18 20  1  0
 20 21  1  0
 20 22  1  0
 22 23  2  0
 22 24  1  0
 24 16  1  0
M  END
> <Smiles>
O=C(c1ccc(-c2ccc(F)cc2)cc1)c1cc(=O)n(O)c(=O)[nH]1

> <IC50_uM>
0.027

> <pIC50>
7.568636236

> <Activity>
1

$$$$

  SciTegic10102310092D

 33 35  0  0  0  0            999 V2000
    3.1676   -7.5606    0.0000 C   0  0
    1.7006   -7.2475    0.0000 C   0  0
    0.6960   -8.3614    0.0000 C   0  0
   -0.7710   -8.0483    0.0000 C   0  0
   -1.7756   -9.1622    0.0000 C   0  0
   -1.2333   -6.6213    0.0000 C   0  0
   -0.2287   -5.5075    0.0000 C   0  0
   -0.6913   -4.0797    0.0000 S   0  0
   -2.1584   -3.7671    0.0000 O   0  0
   -1.6957   -5.1937    0.0000 O   0  0
    0.3114   -2.9665    0.0000 C   0  0
    1.8032   -3.1233    0.0000 C   0  0
    2.5551   -4.4192    0.0000 C   0  0
    1.8074   -5.7196    0.0000 O   0  0
    4.0559   -4.4171    0.0000 N   0  0
    4.8090   -5.7153    0.0000 C   0  0  3  0  0  0
    4.0613   -7.0156    0.0000 C   0  0
    6.3098   -5.7131    0.0000 C   0  0
    7.0629   -7.0113    0.0000 S   0  0
    6.3152   -8.3116    0.0000 N   0  0
    8.5629   -7.0091    0.0000 O   0  0
    7.8150   -8.3091    0.0000 O   0  0
    2.4133   -1.7530    0.0000 N   0  0
    1.2990   -0.7500    0.0000 C   0  0
    1.2990    0.7500    0.0000 C   0  0
    0.0000    1.5000    0.0000 C   0  0
   -1.2990    0.7500    0.0000 C   0  0
   -2.6003    1.4977    0.0000 N   0  3
   -3.8983    0.7459    0.0000 O   0  0
   -2.6030    2.9977    0.0000 O   0  5
   -1.2990   -0.7500    0.0000 C   0  0
    0.0000   -1.5000    0.0000 C   0  0
    1.2383   -5.8206    0.0000 C   0  0
  1  2  1  0
  2  3  2  0
  3  4  1  0
  4  5  1  0
  4  6  2  0
  6  7  1  0
  7  8  1  0
  8  9  2  0
  8 10  2  0
  8 11  1  0
 11 12  2  0
 12 13  1  0
 13 14  2  0
 13 15  1  0
 15 16  1  0
 16 17  1  4
 16 18  1  0
 18 19  1  0
 19 20  1  0
 19 21  2  0
 19 22  2  0
 12 23  1  0
 23 24  1  0
 24 25  2  0
 25 26  1  0
 26 27  2  0
 27 28  1  0
 28 29  2  0
 28 30  1  0
 27 31  1  0
 31 32  2  0
 32 11  1  0
 32 24  1  0
  7 33  2  0
 33  2  1  0
M  CHG  2  28   1  30  -1
M  END
> <Smiles>
Cc1cc(C)cc(S(=O)(=O)c2c(C(=O)NC(C)CS(N)(=O)=O)[nH]c3ccc([N+](=O)[O-])cc23)c1

> <IC50_uM>
0.028

> <pIC50>
7.552841969

> <Activity>
1

$$$$

  SciTegic10102310092D

 37 40  0  0  0  0            999 V2000
    2.5981   -1.5000    0.0000 C   0  0
    1.2990   -0.7500    0.0000 C   0  0
    1.2990    0.7500    0.0000 C   0  0
    0.0000    1.5000    0.0000 C   0  0
    0.0000    3.0008    0.0000 C   0  0
    0.0000    4.5008    0.0000 N   0  0
   -1.2990    0.7500    0.0000 C   0  0
   -1.2990   -0.7500    0.0000 C   0  0
   -2.5981   -1.5000    0.0000 C   0  0
    0.0000   -1.5000    0.0000 C   0  0
    0.0031   -3.0008    0.0000 O   0  0
    1.3039   -3.7494    0.0000 C   0  0
    2.6005   -2.9949    0.0000 N   0  0
    3.9021   -3.7404    0.0000 C   0  0
    5.2008   -2.9882    0.0000 N   0  0
    6.5021   -3.7360    0.0000 C   0  0
    7.8012   -2.9860    0.0000 C   0  0
    9.1002   -3.7360    0.0000 C   0  0
    9.1002   -5.2360    0.0000 N   0  0
   10.3984   -5.9891    0.0000 C   0  0
   10.3963   -7.4900    0.0000 C   0  0
    9.0946   -8.2356    0.0000 C   0  0
    9.0894   -9.7355    0.0000 C   0  0
   10.3859  -10.4900    0.0000 C   0  0
   10.3807  -11.9908    0.0000 S   0  0
   11.6774  -12.7449    0.0000 C   0  0
    9.0795  -12.7372    0.0000 O   0  0
   10.3762  -13.4908    0.0000 O   0  0
   11.6875   -9.7445    0.0000 C   0  0
   11.6927   -8.2445    0.0000 C   0  0
   12.9943   -7.4991    0.0000 Cl  0  0
    7.8012   -5.9860    0.0000 C   0  0
    6.5021   -5.2360    0.0000 C   0  0
    3.9073   -5.2404    0.0000 N   0  0
    2.6108   -5.9949    0.0000 C   0  0
    1.3092   -5.2494    0.0000 C   0  0
    0.0128   -6.0039    0.0000 Br  0  0
  1  2  1  0
  2  3  2  0
  3  4  1  0
  4  5  1  0
  5  6  3  0
  4  7  2  0
  7  8  1  0
  8  9  1  0
  8 10  2  0
 10  2  1  0
 10 11  1  0
 11 12  1  0
 12 13  2  0
 13 14  1  0
 14 15  1  0
 15 16  1  0
 16 17  1  0
 17 18  1  0
 18 19  1  0
 19 20  1  0
 20 21  1  0
 21 22  2  0
 22 23  1  0
 23 24  2  0
 24 25  1  0
 25 26  1  0
 25 27  2  0
 25 28  2  0
 24 29  1  0
 29 30  2  0
 30 21  1  0
 30 31  1  0
 19 32  1  0
 32 33  1  0
 33 16  1  0
 14 34  2  0
 34 35  1  0
 35 36  2  0
 36 12  1  0
 36 37  1  0
M  END
> <Smiles>
Cc1cc(C#N)cc(C)c1Oc1nc(NC2CCN(Cc3ccc(S(C)(=O)=O)cc3Cl)CC2)ncc1Br

> <IC50_uM>
0.028

> <pIC50>
7.552841969

> <Activity>
1

$$$$

  SciTegic10102310092D

 34 37  0  0  0  0            999 V2000
    2.5981   -1.5000    0.0000 C   0  0
    1.2990   -0.7500    0.0000 C   0  0
    1.2990    0.7500    0.0000 C   0  0
    0.0000    1.5000    0.0000 C   0  0
    0.0000    3.0008    0.0000 C   0  0
    0.0000    4.5008    0.0000 N   0  0
   -1.2990    0.7500    0.0000 C   0  0
   -1.2990   -0.7500    0.0000 C   0  0
   -2.5981   -1.5000    0.0000 Cl  0  0
    0.0000   -1.5000    0.0000 C   0  0
    0.0031   -3.0008    0.0000 O   0  0
    1.3039   -3.7494    0.0000 C   0  0
    2.6005   -2.9949    0.0000 N   0  0
    3.9021   -3.7404    0.0000 C   0  0
    5.2008   -2.9882    0.0000 N   0  0
    6.5021   -3.7360    0.0000 C   0  0
    7.8012   -2.9860    0.0000 C   0  0
    9.1002   -3.7360    0.0000 C   0  0
    9.1002   -5.2360    0.0000 N   0  0
   10.3999   -5.9864    0.0000 C   0  0
   11.7002   -5.2385    0.0000 C   0  0
   12.9981   -5.9906    0.0000 C   0  0
   12.9957   -7.4906    0.0000 C   0  0
   11.6954   -8.2385    0.0000 C   0  0
   11.6900   -9.7394    0.0000 C   0  0
   12.9865  -10.4937    0.0000 N   0  0
   10.3887  -10.4854    0.0000 O   0  0
   10.3976   -7.4865    0.0000 C   0  0
    7.8012   -5.9860    0.0000 C   0  0
    6.5021   -5.2360    0.0000 C   0  0
    3.9073   -5.2404    0.0000 N   0  0
    2.6108   -5.9949    0.0000 C   0  0
    1.3092   -5.2494    0.0000 C   0  0
    0.0128   -6.0039    0.0000 Br  0  0
  1  2  1  0
  2  3  2  0
  3  4  1  0
  4  5  1  0
  5  6  3  0
  4  7  2  0
  7  8  1  0
  8  9  1  0
  8 10  2  0
 10  2  1  0
 10 11  1  0
 11 12  1  0
 12 13  2  0
 13 14  1  0
 14 15  1  0
 15 16  1  0
 16 17  1  0
 17 18  1  0
 18 19  1  0
 19 20  1  0
 20 21  2  0
 21 22  1  0
 22 23  2  0
 23 24  1  0
 24 25  1  0
 25 26  1  0
 25 27  2  0
 24 28  2  0
 28 20  1  0
 19 29  1  0
 29 30  1  0
 30 16  1  0
 14 31  2  0
 31 32  1  0
 32 33  2  0
 33 12  1  0
 33 34  1  0
M  END
> <Smiles>
Cc1cc(C#N)cc(Cl)c1Oc1nc(NC2CCN(c3cccc(C(N)=O)c3)CC2)ncc1Br

> <IC50_uM>
0.028

> <pIC50>
7.552841969

> <Activity>
1

$$$$

  SciTegic10102310092D

 35 38  0  0  0  0            999 V2000
    5.1978   -4.5012    0.0000 C   0  0
    5.1983   -3.0012    0.0000 C   0  0
    3.8991   -3.7510    0.0000 C   0  0
    3.8985   -2.2508    0.0000 C   0  0
    2.5988   -1.5004    0.0000 C   0  0
    1.2990   -0.7500    0.0000 C   0  0
    1.2990    0.7500    0.0000 C   0  0
    0.0000    1.5000    0.0000 C   0  0
   -1.2990    0.7500    0.0000 C   0  0
   -2.5973    1.5031    0.0000 N   0  0
   -2.5951    3.0039    0.0000 C   0  0
   -1.2948    3.7516    0.0000 O   0  0
   -3.8933    3.7570    0.0000 C   0  0
   -3.8912    5.2578    0.0000 S   0  0
   -5.1894    6.0109    0.0000 C   0  0
   -6.5408    5.3898    0.0000 N   0  0
   -7.5445    6.5046    0.0000 N   0  0
   -6.7945    7.8036    0.0000 N   0  0
   -5.3273    7.4917    0.0000 N   0  0
   -4.2061    8.4893    0.0000 C   0  0
   -4.6302    9.9300    0.0000 C   0  0
   -3.5923   11.0129    0.0000 C   0  0
   -2.1355   10.6554    0.0000 C   0  0
   -1.0970   11.7388    0.0000 C   0  0
   -0.8006   13.1292    0.0000 C   0  0
    0.2807   12.0895    0.0000 C   0  0
   -1.7166    9.2151    0.0000 C   0  0
   -2.7546    8.1322    0.0000 C   0  0
   -2.3362    6.6917    0.0000 Cl  0  0
   -1.2990   -0.7500    0.0000 C   0  0
   -2.5981   -1.5000    0.0000 Cl  0  0
    0.0000   -1.5000    0.0000 C   0  0
    6.4985   -2.2516    0.0000 C   0  0
    7.7976   -3.0016    0.0000 O   0  0
    6.4990   -0.7516    0.0000 O   0  0
  1  2  1  0
  2  3  1  0
  2  4  1  0
  4  5  3  0
  5  6  1  0
  6  7  2  0
  7  8  1  0
  8  9  2  0
  9 10  1  0
 10 11  1  0
 11 12  2  0
 11 13  1  0
 13 14  1  0
 14 15  1  0
 15 16  2  0
 16 17  1  0
 17 18  2  0
 18 19  1  0
 19 15  1  0
 19 20  1  0
 20 21  2  0
 21 22  1  0
 22 23  2  0
 23 24  1  0
 24 25  1  0
 25 26  1  0
 26 24  1  0
 23 27  1  0
 27 28  2  0
 28 20  1  0
 28 29  1  0
  9 30  1  0
 30 31  1  0
 30 32  2  0
 32  6  1  0
  2 33  1  0
 33 34  2  0
 33 35  1  0
M  END
> <Smiles>
CC(C)(C#Cc1ccc(NC(=O)CSc2nnnn2-c2ccc(C3CC3)cc2Cl)c(Cl)c1)C(=O)O

> <IC50_uM>
0.028

> <pIC50>
7.552841969

> <Activity>
1

$$$$

  SciTegic10102310092D

 38 41  0  0  0  0            999 V2000
    3.8983   -0.7512    0.0000 C   0  0
    2.5988   -1.5004    0.0000 C   0  0
    2.5983   -3.0004    0.0000 C   0  0
    3.8975   -2.2510    0.0000 C   0  0
    1.2990   -0.7500    0.0000 C   0  0
    1.2990    0.7500    0.0000 C   0  0
    0.0000    1.5000    0.0000 C   0  0
   -1.2990    0.7500    0.0000 C   0  0
   -2.5987    1.5004    0.0000 N   0  0
   -3.9492    0.8772    0.0000 N   0  0
   -4.9546    1.9903    0.0000 N   0  0
   -4.2067    3.2905    0.0000 N   0  0
   -2.7390    2.9810    0.0000 C   0  0
   -1.6216    3.9790    0.0000 S   0  0
   -1.9268    5.4485    0.0000 C   0  0
   -0.8074    6.4482    0.0000 C   0  0
    0.6172    5.9785    0.0000 O   0  0
   -1.1126    7.9177    0.0000 N   0  0
    0.0068    8.9174    0.0000 C   0  0
    1.4306    8.4453    0.0000 C   0  0
    2.5514    9.4422    0.0000 C   0  0
    2.2485   10.9113    0.0000 C   0  0
    3.3698   11.9087    0.0000 C   0  0
    4.7944   11.4389    0.0000 C   0  0
    5.9136   12.4375    0.0000 C   0  0
    5.6083   13.9061    0.0000 C   0  0
    6.7261   14.9077    0.0000 C   0  0
    6.4186   16.3767    0.0000 C   0  0
    7.5357   17.3777    0.0000 O   0  0
    4.9933   16.8441    0.0000 O   0  0
    4.1839   14.3761    0.0000 C   0  0
    3.0646   13.3774    0.0000 C   0  0
    0.8247   11.3835    0.0000 C   0  0
   -0.2961   10.3866    0.0000 C   0  0
   -1.7198   10.8588    0.0000 Cl  0  0
   -1.2990   -0.7500    0.0000 C   0  0
   -2.5981   -1.5000    0.0000 Cl  0  0
    0.0000   -1.5000    0.0000 C   0  0
  1  2  1  0
  2  3  1  0
  2  4  1  0
  2  5  1  0
  5  6  2  0
  6  7  1  0
  7  8  2  0
  8  9  1  0
  9 10  1  0
 10 11  2  0
 11 12  1  0
 12 13  2  0
 13  9  1  0
 13 14  1  0
 14 15  1  0
 15 16  1  0
 16 17  2  0
 16 18  1  0
 18 19  1  0
 19 20  2  0
 20 21  1  0
 21 22  2  0
 22 23  1  0
 23 24  2  0
 24 25  1  0
 25 26  2  0
 26 27  1  0
 27 28  1  0
 28 29  2  0
 28 30  1  0
 26 31  1  0
 31 32  2  0
 32 23  1  0
 22 33  1  0
 33 34  2  0
 34 19  1  0
 34 35  1  0
  8 36  1  0
 36 37  1  0
 36 38  2  0
 38  5  1  0
M  END
> <Smiles>
CC(C)(C)c1ccc(-n2nnnc2SCC(=O)Nc2ccc(-c3ccc(CC(=O)O)cc3)cc2Cl)c(Cl)c1

> <IC50_uM>
0.028

> <pIC50>
7.552841969

> <Activity>
1

$$$$

  SciTegic10102310092D

 23 25  0  0  0  0            999 V2000
    2.5981   -1.5000    0.0000 O   0  0
    1.2990   -0.7500    0.0000 C   0  0
    1.2990    0.7500    0.0000 C   0  0
    0.0000    1.5000    0.0000 C   0  0
   -0.0031    3.0008    0.0000 C   0  0
   -1.3039    3.7494    0.0000 C   0  0
   -1.3092    5.2494    0.0000 C   0  0
   -2.6108    5.9949    0.0000 C   0  0
   -3.9073    5.2404    0.0000 C   0  0
   -5.2096    5.9863    0.0000 C   0  0
   -5.2172    7.4863    0.0000 C   0  0
   -6.5200    8.2297    0.0000 C   0  0
   -7.8153    7.4732    0.0000 C   0  0
   -7.8077    5.9732    0.0000 C   0  0
   -9.1029    5.2167    0.0000 F   0  0
   -6.5049    5.2298    0.0000 C   0  0
   -3.9021    3.7404    0.0000 C   0  0
   -2.6005    2.9949    0.0000 C   0  0
   -1.2990    0.7500    0.0000 N   0  0
   -1.2990   -0.7500    0.0000 C   0  0
   -2.5981   -1.5000    0.0000 O   0  0
    0.0000   -1.5000    0.0000 N   0  0
    0.0000   -3.0000    0.0000 O   0  0
  1  2  2  0
  2  3  1  0
  3  4  2  0
  4  5  1  0
  5  6  1  0
  6  7  2  0
  7  8  1  0
  8  9  2  0
  9 10  1  0
 10 11  2  0
 11 12  1  0
 12 13  2  0
 13 14  1  0
 14 15  1  0
 14 16  2  0
 16 10  1  0
  9 17  1  0
 17 18  2  0
 18  6  1  0
  4 19  1  0
 19 20  1  0
 20 21  2  0
 20 22  1  0
 22  2  1  0
 22 23  1  0
M  END
> <Smiles>
O=c1cc(Cc2ccc(-c3cccc(F)c3)cc2)[nH]c(=O)n1O

> <IC50_uM>
0.028

> <pIC50>
7.552841969

> <Activity>
1

$$$$

  SciTegic10102310092D

 33 36  0  0  0  0            999 V2000
    2.5981   -1.5000    0.0000 C   0  0
    1.2990   -0.7500    0.0000 C   0  0
    1.2990    0.7500    0.0000 C   0  0
    0.0000    1.5000    0.0000 C   0  0
    0.0031    3.0008    0.0000 O   0  0
    1.3039    3.7494    0.0000 C   0  0
    2.6004    2.9949    0.0000 C   0  0
    3.9020    3.7405    0.0000 C   0  0
    3.9072    5.2405    0.0000 C   0  0
    5.2088    5.9860    0.0000 F   0  0
    2.6108    5.9949    0.0000 C   0  0
    1.3092    5.2494    0.0000 C   0  0
    0.0136    6.0070    0.0000 O   0  0
    0.0209    7.5078    0.0000 C   0  0
   -1.2746    8.2654    0.0000 C   0  0
   -1.2673    9.7662    0.0000 N   0  0
    0.0370   10.5073    0.0000 C   0  0
    0.0474   12.0073    0.0000 C   0  0
   -1.2464   12.7663    0.0000 C   0  0
   -1.2360   14.2662    0.0000 O   0  0
   -2.5506   12.0253    0.0000 N   0  0
   -2.5610   10.5253    0.0000 C   0  0
   -3.8653    9.7844    0.0000 O   0  0
   -1.2990    0.7500    0.0000 C   0  0
   -2.5981    1.5000    0.0000 C   0  0
   -1.2990   -0.7500    0.0000 C   0  0
   -2.5981   -1.5000    0.0000 C   0  0
   -2.5981   -3.0000    0.0000 C   0  0
   -3.8978   -3.7504    0.0000 C   0  0
   -5.1968   -4.5004    0.0000 N   0  0
   -1.2990   -3.7500    0.0000 C   0  0
    0.0000   -3.0000    0.0000 C   0  0
    0.0000   -1.5000    0.0000 C   0  0
  1  2  1  0
  2  3  2  0
  3  4  1  0
  4  5  1  0
  5  6  1  0
  6  7  2  0
  7  8  1  0
  8  9  2  0
  9 10  1  0
  9 11  1  0
 11 12  2  0
 12  6  1  0
 12 13  1  0
 13 14  1  0
 14 15  1  0
 15 16  1  0
 16 17  1  0
 17 18  2  0
 18 19  1  0
 19 20  2  0
 19 21  1  0
 21 22  1  0
 22 16  1  0
 22 23  2  0
  4 24  2  0
 24 25  1  0
 24 26  1  0
 26 27  2  0
 27 28  1  0
 28 29  1  0
 29 30  3  0
 28 31  2  0
 31 32  1  0
 32 33  2  0
 33  2  1  0
 33 26  1  0
M  END
> <Smiles>
Cc1cc(Oc2ccc(F)cc2OCCn2ccc(=O)[nH]c2=O)c(C)c2cc(C#N)ccc12

> <IC50_uM>
0.028

> <pIC50>
7.552841969

> <Activity>
1

$$$$

  SciTegic10102310092D

 24 26  0  0  0  0            999 V2000
    3.8978   -2.2504    0.0000 N   0  0
    2.5988   -1.5004    0.0000 C   0  0
    1.2990   -0.7500    0.0000 C   0  0
    1.2990    0.7500    0.0000 C   0  0
    0.0000    1.5000    0.0000 C   0  0
   -1.2990    0.7500    0.0000 C   0  0
   -2.6003    1.4977    0.0000 N   0  0
   -3.8990    0.7455    0.0000 C   0  0
   -5.2007    1.4909    0.0000 N   0  0
   -6.4972    0.7364    0.0000 C   0  0
   -6.4920   -0.7636    0.0000 C   0  0
   -5.1903   -1.5091    0.0000 C   0  0
   -5.1821   -3.0099    0.0000 N   0  0
   -3.8787   -3.7540    0.0000 C   0  0
   -3.8704   -5.2548    0.0000 C   0  0
   -2.5687   -6.0003    0.0000 C   0  0
   -2.5635   -7.5003    0.0000 C   0  0
   -3.8599   -8.2548    0.0000 C   0  0
   -3.8547   -9.7548    0.0000 Br  0  0
   -5.1616   -7.5094    0.0000 C   0  0
   -5.1668   -6.0094    0.0000 C   0  0
   -3.8939   -0.7546    0.0000 N   0  0
   -1.2990   -0.7500    0.0000 C   0  0
    0.0000   -1.5000    0.0000 C   0  0
  1  2  3  0
  2  3  1  0
  3  4  2  0
  4  5  1  0
  5  6  2  0
  6  7  1  0
  7  8  1  0
  8  9  2  0
  9 10  1  0
 10 11  2  0
 11 12  1  0
 12 13  1  0
 13 14  1  0
 14 15  1  0
 15 16  2  0
 16 17  1  0
 17 18  2  0
 18 19  1  0
 18 20  1  0
 20 21  2  0
 21 15  1  0
 12 22  2  0
 22  8  1  0
  6 23  1  0
 23 24  2  0
 24  3  1  0
M  END
> <Smiles>
N#Cc1ccc(Nc2nccc(NCc3ccc(Br)cc3)n2)cc1

> <IC50_uM>
0.029

> <pIC50>
7.537602002

> <Activity>
1

$$$$

  SciTegic10102310092D

 38 42  0  0  0  0            999 V2000
    2.5923    1.5001    0.0000 C   0  0
    3.8939    0.7546    0.0000 C   0  0
    5.1903    1.5091    0.0000 C   0  0
    6.4920    0.7636    0.0000 C   0  0
    7.7907    1.5158    0.0000 C   0  0
    9.0920    0.7680    0.0000 C   0  0
   10.3907    1.5203    0.0000 C   0  0
   11.6886    2.2721    0.0000 N   0  0
    6.4972   -0.7364    0.0000 C   0  0
    5.2007   -1.4909    0.0000 C   0  0
    5.2059   -2.9909    0.0000 C   0  0
    3.8990   -0.7455    0.0000 C   0  0
    2.6003   -1.4977    0.0000 O   0  0
    1.2990   -0.7500    0.0000 C   0  0
    1.2990    0.7500    0.0000 N   0  0
    0.0000    1.5000    0.0000 C   0  0
   -0.0031    3.0008    0.0000 N   0  0
   -1.3039    3.7494    0.0000 C   0  0
   -1.3092    5.2494    0.0000 C   0  0
   -2.6108    5.9949    0.0000 C   0  0
   -3.9073    5.2404    0.0000 N   0  0
   -5.2112    5.9836    0.0000 C   0  0
   -6.5072    5.2269    0.0000 C   0  0
   -7.8115    5.9678    0.0000 C   0  0
   -9.1053    5.2088    0.0000 C   0  0
   -9.0949    3.7089    0.0000 C   0  0
  -10.3895    2.9495    0.0000 C   0  0
  -11.6833    2.1905    0.0000 N   0  0
   -7.7907    2.9679    0.0000 C   0  0
   -6.4969    3.7269    0.0000 C   0  0
   -3.9021    3.7404    0.0000 C   0  0
   -2.6005    2.9949    0.0000 C   0  0
   -1.2990    0.7500    0.0000 N   0  0
   -1.2990   -0.7500    0.0000 C   0  0
   -2.4133   -1.7530    0.0000 C   0  0
   -1.8032   -3.1233    0.0000 C   0  0
   -0.3114   -2.9665    0.0000 S   0  0
    0.0000   -1.5000    0.0000 C   0  0
  1  2  1  0
  2  3  2  0
  3  4  1  0
  4  5  1  0
  5  6  2  0
  6  7  1  0
  7  8  3  0
  4  9  2  0
  9 10  1  0
 10 11  1  0
 10 12  2  0
 12  2  1  0
 12 13  1  0
 13 14  1  0
 14 15  2  0
 15 16  1  0
 16 17  1  0
 17 18  1  0
 18 19  1  0
 19 20  1  0
 20 21  1  0
 21 22  1  0
 22 23  1  0
 23 24  2  0
 24 25  1  0
 25 26  2  0
 26 27  1  0
 27 28  3  0
 26 29  1  0
 29 30  2  0
 30 23  1  0
 21 31  1  0
 31 32  1  0
 32 18  1  0
 16 33  2  0
 33 34  1  0
 34 35  1  0
 35 36  2  0
 36 37  1  0
 37 38  1  0
 38 14  1  0
 38 34  2  0
M  END
> <Smiles>
Cc1cc(/C=C/C#N)cc(C)c1Oc1nc(NC2CCN(Cc3ccc(C#N)cc3)CC2)nc2ccsc12

> <IC50_uM>
0.0296

> <pIC50>
7.528708289

> <Activity>
1

$$$$

  SciTegic10102310092D

 34 37  0  0  0  0            999 V2000
    2.5981   -1.5000    0.0000 C   0  0
    1.2990   -0.7500    0.0000 C   0  0
    1.2990    0.7500    0.0000 C   0  0
    0.0000    1.5000    0.0000 C   0  0
    0.0000    3.0008    0.0000 C   0  0
    0.0000    4.5008    0.0000 N   0  0
   -1.2990    0.7500    0.0000 C   0  0
   -1.2990   -0.7500    0.0000 C   0  0
   -2.5981   -1.5000    0.0000 C   0  0
    0.0000   -1.5000    0.0000 C   0  0
    0.0031   -3.0008    0.0000 O   0  0
    1.3039   -3.7494    0.0000 C   0  0
    2.6005   -2.9949    0.0000 N   0  0
    3.9021   -3.7404    0.0000 C   0  0
    5.2008   -2.9882    0.0000 N   0  0
    6.5021   -3.7360    0.0000 C   0  0
    7.8012   -2.9860    0.0000 C   0  0
    9.1002   -3.7360    0.0000 C   0  0
    9.1002   -5.2360    0.0000 N   0  0
   10.3999   -5.9864    0.0000 C   0  0
   11.7002   -5.2385    0.0000 C   0  0
   12.9981   -5.9906    0.0000 C   0  0
   12.9957   -7.4906    0.0000 C   0  0
   11.6954   -8.2385    0.0000 C   0  0
   11.6900   -9.7394    0.0000 C   0  0
   12.9865  -10.4937    0.0000 N   0  0
   10.3887  -10.4854    0.0000 O   0  0
   10.3976   -7.4865    0.0000 C   0  0
    7.8012   -5.9860    0.0000 C   0  0
    6.5021   -5.2360    0.0000 C   0  0
    3.9073   -5.2404    0.0000 N   0  0
    2.6108   -5.9949    0.0000 C   0  0
    1.3092   -5.2494    0.0000 C   0  0
    0.0128   -6.0039    0.0000 Br  0  0
  1  2  1  0
  2  3  2  0
  3  4  1  0
  4  5  1  0
  5  6  3  0
  4  7  2  0
  7  8  1  0
  8  9  1  0
  8 10  2  0
 10  2  1  0
 10 11  1  0
 11 12  1  0
 12 13  2  0
 13 14  1  0
 14 15  1  0
 15 16  1  0
 16 17  1  0
 17 18  1  0
 18 19  1  0
 19 20  1  0
 20 21  2  0
 21 22  1  0
 22 23  2  0
 23 24  1  0
 24 25  1  0
 25 26  1  0
 25 27  2  0
 24 28  2  0
 28 20  1  0
 19 29  1  0
 29 30  1  0
 30 16  1  0
 14 31  2  0
 31 32  1  0
 32 33  2  0
 33 12  1  0
 33 34  1  0
M  END
> <Smiles>
Cc1cc(C#N)cc(C)c1Oc1nc(NC2CCN(c3cccc(C(N)=O)c3)CC2)ncc1Br

> <IC50_uM>
0.03

> <pIC50>
7.522878745

> <Activity>
1

$$$$

  SciTegic10102310092D

 33 36  0  0  0  0            999 V2000
   12.9801    7.5127    0.0000 C   0  0
   11.6821    8.2646    0.0000 O   0  0
   10.3808    7.5168    0.0000 C   0  0
    9.0817    8.2669    0.0000 C   0  0
    7.7827    7.5169    0.0000 C   0  0
    7.7826    6.0168    0.0000 C   0  0
    6.4844    5.2638    0.0000 C   0  0
    5.1841    6.0116    0.0000 O   0  0
    6.4865    3.7630    0.0000 C   0  0
    5.1883    3.0099    0.0000 S   0  0
    5.1903    1.5091    0.0000 C   0  0
    3.8939    0.7546    0.0000 N   0  0
    3.8990   -0.7455    0.0000 C   0  0
    2.6003   -1.4977    0.0000 C   0  0
    1.2990   -0.7500    0.0000 C   0  0
    1.2990    0.7500    0.0000 C   0  0
    0.0000    1.5000    0.0000 C   0  0
   -1.2990    0.7500    0.0000 C   0  0
   -1.2990   -0.7500    0.0000 C   0  0
   -2.5981   -1.5000    0.0000 C   0  0
   -2.5981   -3.0000    0.0000 C   0  0
   -1.2990   -3.7500    0.0000 C   0  0
    0.0000   -3.0000    0.0000 C   0  0
    0.0000   -1.5000    0.0000 C   0  0
    5.2007   -1.4909    0.0000 C   0  0
    5.2090   -2.9917    0.0000 C   0  0
    6.5118   -3.7353    0.0000 C   0  0
    3.9139   -3.7485    0.0000 C   0  0
    6.4972   -0.7364    0.0000 C   0  0
    7.7988   -1.4819    0.0000 O   0  0
    6.4920    0.7636    0.0000 N   0  0
    9.0817    5.2669    0.0000 C   0  0
   10.3808    6.0168    0.0000 C   0  0
  1  2  1  0
  2  3  1  0
  3  4  2  0
  4  5  1  0
  5  6  2  0
  6  7  1  0
  7  8  2  0
  7  9  1  0
  9 10  1  0
 10 11  1  0
 11 12  2  0
 12 13  1  0
 13 14  1  0
 14 15  1  0
 15 16  2  0
 16 17  1  0
 17 18  2  0
 18 19  1  0
 19 20  2  0
 20 21  1  0
 21 22  2  0
 22 23  1  0
 23 24  2  0
 24 15  1  0
 24 19  1  0
 13 25  2  0
 25 26  1  0
 26 27  1  0
 26 28  1  0
 25 29  1  0
 29 30  2  0
 29 31  1  0
 31 11  1  0
  6 32  1  0
 32 33  2  0
 33  3  1  0
M  END
> <Smiles>
COc1ccc(C(=O)CSc2nc(Cc3cccc4ccccc34)c(C(C)C)c(=O)[nH]2)cc1

> <IC50_uM>
0.03

> <pIC50>
7.522878745

> <Activity>
1

$$$$

  SciTegic10102310092D

 30 32  0  0  0  0            999 V2000
    3.8964    0.7545    0.0000 C   0  0
    3.8990   -0.7455    0.0000 C   0  0
    5.1996   -1.4928    0.0000 O   0  0
    2.6003   -1.4977    0.0000 N   0  0
    1.2990   -0.7500    0.0000 C   0  0
    1.2990    0.7500    0.0000 C   0  0
    0.0000    1.5000    0.0000 N   0  0
   -1.2990    0.7500    0.0000 C   0  0
   -2.6003    1.4977    0.0000 N   0  0
   -3.8990    0.7455    0.0000 C   0  0
   -5.2007    1.4909    0.0000 C   0  0
   -6.4972    0.7364    0.0000 C   0  0
   -6.4920   -0.7636    0.0000 C   0  0
   -7.7891   -1.5185    0.0000 C   0  0
   -9.0855   -2.2730    0.0000 N   0  0
   -5.1903   -1.5091    0.0000 C   0  0
   -3.8939   -0.7546    0.0000 C   0  0
   -1.2990   -0.7500    0.0000 N   0  0
    0.0000   -1.5000    0.0000 C   0  0
   -0.0031   -3.0008    0.0000 O   0  0
   -1.3039   -3.7494    0.0000 C   0  0
   -1.3092   -5.2494    0.0000 C   0  0
   -0.0128   -6.0039    0.0000 C   0  0
   -2.6108   -5.9949    0.0000 C   0  0
   -3.9072   -5.2404    0.0000 C   0  0
   -5.2096   -5.9864    0.0000 C   0  0
   -6.5112   -6.7319    0.0000 N   0  0
   -3.9020   -3.7404    0.0000 C   0  0
   -2.6004   -2.9949    0.0000 C   0  0
   -2.5953   -1.4949    0.0000 C   0  0
  1  2  1  0
  2  3  2  0
  2  4  1  0
  4  5  1  0
  5  6  2  0
  6  7  1  0
  7  8  2  0
  8  9  1  0
  9 10  1  0
 10 11  2  0
 11 12  1  0
 12 13  2  0
 13 14  1  0
 14 15  3  0
 13 16  1  0
 16 17  2  0
 17 10  1  0
  8 18  1  0
 18 19  2  0
 19  5  1  0
 19 20  1  0
 20 21  1  0
 21 22  2  0
 22 23  1  0
 22 24  1  0
 24 25  2  0
 25 26  1  0
 26 27  3  0
 25 28  1  0
 28 29  2  0
 29 21  1  0
 29 30  1  0
M  END
> <Smiles>
CC(=O)Nc1cnc(Nc2ccc(C#N)cc2)nc1Oc1c(C)cc(C#N)cc1C

> <IC50_uM>
0.03

> <pIC50>
7.522878745

> <Activity>
1

$$$$

  SciTegic10102310092D

 24 26  0  0  0  0            999 V2000
    2.5981   -1.5000    0.0000 C   0  0
    1.2990   -0.7500    0.0000 C   0  0
    1.2990    0.7500    0.0000 C   0  0
    2.5972    1.5031    0.0000 C   0  0  3  0  0  0
    3.8976    0.7554    0.0000 C   0  0
    2.5951    3.0039    0.0000 C   0  0
    3.8915    3.7585    0.0000 C   0  0
    5.1932    3.0131    0.0000 F   0  0
    3.8863    5.2585    0.0000 C   0  0
    2.5847    6.0040    0.0000 C   0  0
    1.2883    5.2495    0.0000 C   0  0
    1.2934    3.7495    0.0000 C   0  0
   -0.0030    2.9951    0.0000 F   0  0
    0.0000    1.5000    0.0000 N   0  0
   -1.2990    0.7500    0.0000 C   0  0
   -2.6003    1.4977    0.0000 N   0  0
   -3.8990    0.7455    0.0000 C   0  0
   -5.2526    1.3618    0.0000 C   0  0
   -6.2524    0.2436    0.0000 C   0  0
   -5.4979   -1.0529    0.0000 C   0  0
   -4.0317   -0.7359    0.0000 C   0  0
   -1.2990   -0.7500    0.0000 N   0  0
    0.0000   -1.5000    0.0000 C   0  0
    0.0000   -3.0000    0.0000 O   0  0
  1  2  1  0
  2  3  2  0
  3  4  1  0
  4  5  1  4
  4  6  1  0
  6  7  2  0
  7  8  1  0
  7  9  1  0
  9 10  2  0
 10 11  1  0
 11 12  2  0
 12  6  1  0
 12 13  1  0
  3 14  1  0
 14 15  2  0
 15 16  1  0
 16 17  1  0
 17 18  1  0
 18 19  1  0
 19 20  1  0
 20 21  1  0
 21 17  1  0
 15 22  1  0
 22 23  1  0
 23  2  1  0
 23 24  2  0
M  END
> <Smiles>
Cc1c(C(C)c2c(F)cccc2F)nc(NC2CCCC2)[nH]c1=O

> <IC50_uM>
0.03

> <pIC50>
7.522878745

> <Activity>
1

$$$$

  SciTegic10102310092D

 32 35  0  0  0  0            999 V2000
    9.2863  -10.9445    0.0000 C   0  0
    8.5422   -9.6421    0.0000 C   0  0
    7.0414   -9.6343    0.0000 C   0  0
    6.2954   -8.3329    0.0000 C   0  0
    4.7954   -8.3283    0.0000 C   0  0
    4.0413   -9.6250    0.0000 C   0  0
    2.5405   -9.6223    0.0000 N   0  0
    1.7882  -10.9210    0.0000 C   0  0
    0.2882  -10.9183    0.0000 O   0  0
    2.5359  -12.2223    0.0000 C   0  0
    1.9149  -13.5737    0.0000 C   0  0
    3.0296  -14.5774    0.0000 C   0  0
    4.3286  -13.8274    0.0000 C   0  0
    4.0168  -12.3602    0.0000 O   0  0
    1.7928   -8.3210    0.0000 C   0  0
    0.2928   -8.3184    0.0000 S   0  0
    2.5451   -7.0223    0.0000 O   0  0
    1.7974   -5.7210    0.0000 C   0  0
    2.5497   -4.4224    0.0000 C   0  0
    1.8032   -3.1233    0.0000 N   0  0
    2.4133   -1.7530    0.0000 C   0  0
    3.8805   -1.4410    0.0000 O   0  0
    1.2990   -0.7500    0.0000 C   0  0
    1.2990    0.7500    0.0000 C   0  0
    0.0000    1.5000    0.0000 C   0  0
   -1.2990    0.7500    0.0000 C   0  0
   -1.2990   -0.7500    0.0000 C   0  0
    0.0000   -1.5000    0.0000 C   0  0
    0.3114   -2.9665    0.0000 C   0  0
   -0.6923   -4.0811    0.0000 O   0  0
    4.7873  -10.9263    0.0000 C   0  0
    6.2873  -10.9310    0.0000 C   0  0
  1  2  1  0
  2  3  1  0
  3  4  2  0
  4  5  1  0
  5  6  2  0
  6  7  1  0
  7  8  1  0
  8  9  2  0
  8 10  1  0
 10 11  2  0
 11 12  1  0
 12 13  2  0
 13 14  1  0
 14 10  1  0
  7 15  1  0
 15 16  2  0
 15 17  1  0
 17 18  1  0
 18 19  1  0
 19 20  1  0
 20 21  1  0
 21 22  2  0
 21 23  1  0
 23 24  2  0
 24 25  1  0
 25 26  2  0
 26 27  1  0
 27 28  2  0
 28 23  1  0
 28 29  1  0
 29 20  1  0
 29 30  2  0
  6 31  1  0
 31 32  2  0
 32  3  1  0
M  END
> <Smiles>
CCc1ccc(N(C(=O)c2ccco2)C(=S)OCCN2C(=O)c3ccccc3C2=O)cc1

> <IC50_uM>
0.03

> <pIC50>
7.522878745

> <Activity>
1

$$$$

  SciTegic10102310092D

 31 34  0  0  0  0            999 V2000
    3.1676   -7.5606    0.0000 C   0  0
    1.7006   -7.2475    0.0000 C   0  0
    0.6960   -8.3614    0.0000 C   0  0
   -0.7710   -8.0483    0.0000 C   0  0
   -1.7756   -9.1622    0.0000 C   0  0
   -1.2333   -6.6213    0.0000 C   0  0
   -0.2287   -5.5075    0.0000 C   0  0
   -0.6913   -4.0797    0.0000 S   0  0
   -2.1584   -3.7671    0.0000 O   0  0
   -1.6957   -5.1937    0.0000 O   0  0
    0.3114   -2.9665    0.0000 C   0  0
    1.8032   -3.1233    0.0000 C   0  0
    2.5551   -4.4192    0.0000 C   0  0
    1.8074   -5.7196    0.0000 O   0  0
    4.0559   -4.4171    0.0000 N   0  0
    4.8090   -5.7153    0.0000 C   0  0
    6.3098   -5.7131    0.0000 N   0  0
    7.0644   -7.0095    0.0000 C   0  0
    8.5644   -7.0043    0.0000 C   0  0
    9.3099   -5.7026    0.0000 C   0  0
    8.5554   -4.4062    0.0000 C   0  0
    7.0554   -4.4114    0.0000 C   0  0
    2.4133   -1.7530    0.0000 N   0  0
    1.2990   -0.7500    0.0000 C   0  0
    1.2990    0.7500    0.0000 C   0  0
    0.0000    1.5000    0.0000 C   0  0
   -1.2990    0.7500    0.0000 C   0  0
   -2.5981    1.5000    0.0000 Br  0  0
   -1.2990   -0.7500    0.0000 C   0  0
    0.0000   -1.5000    0.0000 C   0  0
    1.2383   -5.8206    0.0000 C   0  0
  1  2  1  0
  2  3  2  0
  3  4  1  0
  4  5  1  0
  4  6  2  0
  6  7  1  0
  7  8  1  0
  8  9  2  0
  8 10  2  0
  8 11  1  0
 11 12  2  0
 12 13  1  0
 13 14  2  0
 13 15  1  0
 15 16  1  0
 16 17  1  0
 17 18  1  0
 18 19  1  0
 19 20  1  0
 20 21  1  0
 21 22  1  0
 22 17  1  0
 12 23  1  0
 23 24  1  0
 24 25  2  0
 25 26  1  0
 26 27  2  0
 27 28  1  0
 27 29  1  0
 29 30  2  0
 30 11  1  0
 30 24  1  0
  7 31  2  0
 31  2  1  0
M  END
> <Smiles>
Cc1cc(C)cc(S(=O)(=O)c2c(C(=O)NCN3CCCCC3)[nH]c3ccc(Br)cc23)c1

> <IC50_uM>
0.03

> <pIC50>
7.522878745

> <Activity>
1

$$$$

  SciTegic10102310092D

 36 39  0  0  0  0            999 V2000
    2.5981   -1.5000    0.0000 C   0  0
    1.2990   -0.7500    0.0000 C   0  0
    1.2990    0.7500    0.0000 C   0  0
    0.0000    1.5000    0.0000 C   0  0
    0.0000    3.0008    0.0000 C   0  0
    0.0000    4.5008    0.0000 N   0  0
   -1.2990    0.7500    0.0000 C   0  0
   -1.2990   -0.7500    0.0000 C   0  0
   -2.5981   -1.5000    0.0000 C   0  0
    0.0000   -1.5000    0.0000 C   0  0
    0.0031   -3.0008    0.0000 O   0  0
    1.3039   -3.7494    0.0000 C   0  0
    1.3092   -5.2494    0.0000 C   0  0
    2.6108   -5.9949    0.0000 C   0  0
    3.9073   -5.2404    0.0000 N   0  0
    3.9021   -3.7404    0.0000 C   0  0
    5.1977   -2.9829    0.0000 N   0  0
    5.1903   -1.4820    0.0000 C   0  0
    6.4841   -0.7230    0.0000 C   0  0
    6.4738    0.7770    0.0000 C   0  0
    5.1696    1.5180    0.0000 N   0  0
    5.1561    3.0188    0.0000 C   0  0
    3.8501    3.7583    0.0000 C   0  0
    2.5588    2.9949    0.0000 C   0  0
    1.2521    3.7314    0.0000 C   0  0
    1.2365    5.2313    0.0000 C   0  0
   -0.0709    5.9682    0.0000 S   0  0
   -0.0860    7.4681    0.0000 C   0  0
   -1.3626    5.2056    0.0000 O   0  0
   -1.3773    6.7053    0.0000 O   0  0
    2.5277    5.9947    0.0000 C   0  0
    3.8345    5.2582    0.0000 C   0  0
    5.1256    6.0217    0.0000 Cl  0  0
    3.8757    0.7590    0.0000 C   0  0
    3.8861   -0.7410    0.0000 C   0  0
    2.6004   -2.9949    0.0000 N   0  0
  1  2  1  0
  2  3  2  0
  3  4  1  0
  4  5  1  0
  5  6  3  0
  4  7  2  0
  7  8  1  0
  8  9  1  0
  8 10  2  0
 10  2  1  0
 10 11  1  0
 11 12  1  0
 12 13  2  0
 13 14  1  0
 14 15  2  0
 15 16  1  0
 16 17  1  0
 17 18  1  0
 18 19  1  0
 19 20  1  0
 20 21  1  0
 21 22  1  0
 22 23  1  0
 23 24  2  0
 24 25  1  0
 25 26  2  0
 26 27  1  0
 27 28  1  0
 27 29  2  0
 27 30  2  0
 26 31  1  0
 31 32  2  0
 32 23  1  0
 32 33  1  0
 21 34  1  0
 34 35  1  0
 35 18  1  0
 16 36  2  0
 36 12  1  0
M  END
> <Smiles>
Cc1cc(C#N)cc(C)c1Oc1ccnc(NC2CCN(Cc3ccc(S(C)(=O)=O)cc3Cl)CC2)n1

> <IC50_uM>
0.03

> <pIC50>
7.522878745

> <Activity>
1

$$$$

  SciTegic10102310092D

 22 24  0  0  0  0            999 V2000
    1.1583   -9.7884    0.0000 C   0  0
    0.6960   -8.3614    0.0000 C   0  0
   -0.7710   -8.0483    0.0000 C   0  0
   -1.2333   -6.6213    0.0000 C   0  0
   -0.2287   -5.5075    0.0000 C   0  0
   -0.6913   -4.0797    0.0000 S   0  0
   -2.1584   -3.7671    0.0000 O   0  0
   -1.6957   -5.1937    0.0000 O   0  0
    0.3114   -2.9665    0.0000 N   0  0
    1.8032   -3.1233    0.0000 C   0  0
    2.5532   -4.4223    0.0000 O   0  0
    2.4133   -1.7530    0.0000 N   0  0
    1.2990   -0.7500    0.0000 C   0  0
    1.2990    0.7500    0.0000 C   0  0
    0.0000    1.5000    0.0000 C   0  0
   -1.2990    0.7500    0.0000 C   0  0
   -2.5981    1.5000    0.0000 Cl  0  0
   -1.2990   -0.7500    0.0000 C   0  0
    0.0000   -1.5000    0.0000 C   0  0
    1.2383   -5.8206    0.0000 C   0  0
    1.7006   -7.2475    0.0000 C   0  0
    3.1676   -7.5606    0.0000 C   0  0
  1  2  1  0
  2  3  2  0
  3  4  1  0
  4  5  2  0
  5  6  1  0
  6  7  2  0
  6  8  2  0
  6  9  1  0
  9 10  1  0
 10 11  2  0
 10 12  1  0
 12 13  1  0
 13 14  2  0
 14 15  1  0
 15 16  2  0
 16 17  1  0
 16 18  1  0
 18 19  2  0
 19 13  1  0
 19  9  1  0
  5 20  1  0
 20 21  2  0
 21  2  1  0
 21 22  1  0
M  END
> <Smiles>
Cc1ccc(S(=O)(=O)n2c(=O)[nH]c3ccc(Cl)cc32)cc1C

> <IC50_uM>
0.03

> <pIC50>
7.522878745

> <Activity>
1

$$$$

  SciTegic10102310092D

 37 40  0  0  0  0            999 V2000
    5.1978   -4.5012    0.0000 C   0  0
    5.1983   -3.0012    0.0000 C   0  0
    3.8991   -3.7510    0.0000 C   0  0
    3.8985   -2.2508    0.0000 C   0  0
    2.5988   -1.5004    0.0000 C   0  0
    1.2990   -0.7500    0.0000 C   0  0
    1.2990    0.7500    0.0000 C   0  0
    0.0000    1.5000    0.0000 C   0  0
   -1.2990    0.7500    0.0000 C   0  0
   -2.5973    1.5031    0.0000 N   0  0
   -2.5951    3.0039    0.0000 C   0  0
   -1.2948    3.7516    0.0000 O   0  0
   -3.8933    3.7570    0.0000 C   0  0
   -3.8912    5.2578    0.0000 S   0  0
   -5.1894    6.0109    0.0000 C   0  0
   -6.5408    5.3898    0.0000 N   0  0
   -7.5445    6.5046    0.0000 N   0  0
   -6.7945    7.8036    0.0000 N   0  0
   -5.3273    7.4917    0.0000 N   0  0
   -4.2061    8.4893    0.0000 C   0  0
   -4.6302    9.9300    0.0000 C   0  0
   -3.5923   11.0129    0.0000 C   0  0
   -2.1355   10.6554    0.0000 C   0  0
   -1.0970   11.7388    0.0000 C   0  0
   -0.8006   13.1292    0.0000 C   0  0
    0.2807   12.0895    0.0000 C   0  0
   -1.7166    9.2151    0.0000 C   0  0
   -2.7546    8.1322    0.0000 C   0  0
   -2.3362    6.6917    0.0000 Cl  0  0
   -1.2990   -0.7500    0.0000 C   0  0
   -2.5981   -1.5000    0.0000 Cl  0  0
    0.0000   -1.5000    0.0000 C   0  0
    6.4985   -2.2516    0.0000 N   0  0
    7.7983   -3.0020    0.0000 C   0  0
    9.0985   -2.2525    0.0000 C   0  0
   10.3975   -3.0025    0.0000 O   0  0
    9.0990   -0.7525    0.0000 O   0  0
  1  2  1  0
  2  3  1  0
  2  4  1  0
  4  5  3  0
  5  6  1  0
  6  7  2  0
  7  8  1  0
  8  9  2  0
  9 10  1  0
 10 11  1  0
 11 12  2  0
 11 13  1  0
 13 14  1  0
 14 15  1  0
 15 16  2  0
 16 17  1  0
 17 18  2  0
 18 19  1  0
 19 15  1  0
 19 20  1  0
 20 21  2  0
 21 22  1  0
 22 23  2  0
 23 24  1  0
 24 25  1  0
 25 26  1  0
 26 24  1  0
 23 27  1  0
 27 28  2  0
 28 20  1  0
 28 29  1  0
  9 30  1  0
 30 31  1  0
 30 32  2  0
 32  6  1  0
  2 33  1  0
 33 34  1  0
 34 35  1  0
 35 36  2  0
 35 37  1  0
M  END
> <Smiles>
CC(C)(C#Cc1ccc(NC(=O)CSc2nnnn2-c2ccc(C3CC3)cc2Cl)c(Cl)c1)NCC(=O)O

> <IC50_uM>
0.03

> <pIC50>
7.522878745

> <Activity>
1

$$$$

  SciTegic10102310092D

 38 42  0  0  0  0            999 V2000
    2.5923    1.5001    0.0000 C   0  0
    3.8939    0.7546    0.0000 C   0  0
    5.1903    1.5091    0.0000 C   0  0
    6.4920    0.7636    0.0000 C   0  0
    7.7891    1.5185    0.0000 C   0  0
    9.0856    2.2729    0.0000 N   0  0
    6.4972   -0.7364    0.0000 C   0  0
    5.2007   -1.4909    0.0000 C   0  0
    5.2059   -2.9909    0.0000 C   0  0
    3.8990   -0.7455    0.0000 C   0  0
    2.6003   -1.4977    0.0000 N   0  0
    1.2990   -0.7500    0.0000 C   0  0
    1.2990    0.7500    0.0000 N   0  0
    0.0000    1.5000    0.0000 C   0  0
   -0.0031    3.0008    0.0000 N   0  0
   -1.3039    3.7494    0.0000 C   0  0
   -1.3092    5.2494    0.0000 C   0  0
   -2.6108    5.9949    0.0000 C   0  0
   -3.9073    5.2404    0.0000 N   0  0
   -5.2112    5.9836    0.0000 C   0  0
   -6.5072    5.2269    0.0000 C   0  0
   -7.8115    5.9678    0.0000 C   0  0
   -9.1053    5.2088    0.0000 C   0  0
   -9.0949    3.7089    0.0000 C   0  0
  -10.3895    2.9495    0.0000 S   0  0
  -10.3786    1.4495    0.0000 N   0  0
  -11.6941    3.6896    0.0000 O   0  0
  -11.6829    2.1899    0.0000 O   0  0
   -7.7907    2.9679    0.0000 C   0  0
   -6.4969    3.7269    0.0000 C   0  0
   -3.9021    3.7404    0.0000 C   0  0
   -2.6005    2.9949    0.0000 C   0  0
   -1.2990    0.7500    0.0000 N   0  0
   -1.2990   -0.7500    0.0000 C   0  0
   -2.4133   -1.7530    0.0000 C   0  0
   -1.8032   -3.1233    0.0000 C   0  0
   -0.3114   -2.9665    0.0000 S   0  0
    0.0000   -1.5000    0.0000 C   0  0
  1  2  1  0
  2  3  2  0
  3  4  1  0
  4  5  1  0
  5  6  3  0
  4  7  2  0
  7  8  1  0
  8  9  1  0
  8 10  2  0
 10  2  1  0
 10 11  1  0
 11 12  1  0
 12 13  2  0
 13 14  1  0
 14 15  1  0
 15 16  1  0
 16 17  1  0
 17 18  1  0
 18 19  1  0
 19 20  1  0
 20 21  1  0
 21 22  2  0
 22 23  1  0
 23 24  2  0
 24 25  1  0
 25 26  1  0
 25 27  2  0
 25 28  2  0
 24 29  1  0
 29 30  2  0
 30 21  1  0
 19 31  1  0
 31 32  1  0
 32 16  1  0
 14 33  2  0
 33 34  1  0
 34 35  1  0
 35 36  2  0
 36 37  1  0
 37 38  1  0
 38 12  1  0
 38 34  2  0
M  END
> <Smiles>
Cc1cc(C#N)cc(C)c1Nc1nc(NC2CCN(Cc3ccc(S(N)(=O)=O)cc3)CC2)nc2ccsc12

> <IC50_uM>
0.0306

> <pIC50>
7.514278574

> <Activity>
1

$$$$

  SciTegic10102310092D

 39 43  0  0  0  0            999 V2000
    2.5923    1.5001    0.0000 C   0  0
    3.8939    0.7546    0.0000 C   0  0
    5.1903    1.5091    0.0000 C   0  0
    6.4920    0.7636    0.0000 C   0  0
    7.7907    1.5158    0.0000 C   0  0
    9.0920    0.7680    0.0000 C   0  0
   10.3907    1.5203    0.0000 C   0  0
   11.6886    2.2721    0.0000 N   0  0
    6.4972   -0.7364    0.0000 C   0  0
    5.2007   -1.4909    0.0000 C   0  0
    5.2059   -2.9909    0.0000 C   0  0
    3.8990   -0.7455    0.0000 C   0  0
    2.6003   -1.4977    0.0000 O   0  0
    1.2990   -0.7500    0.0000 C   0  0
    1.2990    0.7500    0.0000 N   0  0
    0.0000    1.5000    0.0000 C   0  0
   -0.0031    3.0008    0.0000 N   0  0
   -1.3039    3.7494    0.0000 C   0  0
   -1.3092    5.2494    0.0000 C   0  0
   -2.6108    5.9949    0.0000 C   0  0
   -3.9073    5.2404    0.0000 N   0  0
   -5.2112    5.9836    0.0000 C   0  0
   -6.5072    5.2269    0.0000 C   0  0
   -7.8115    5.9678    0.0000 C   0  0
   -9.1053    5.2088    0.0000 C   0  0
   -9.0949    3.7089    0.0000 C   0  0
  -10.3879    2.9468    0.0000 N   0  3
  -10.3754    1.4469    0.0000 O   0  0
  -11.6934    3.6855    0.0000 O   0  5
   -7.7907    2.9679    0.0000 C   0  0
   -6.4969    3.7269    0.0000 C   0  0
   -3.9021    3.7404    0.0000 C   0  0
   -2.6005    2.9949    0.0000 C   0  0
   -1.2990    0.7500    0.0000 N   0  0
   -1.2990   -0.7500    0.0000 C   0  0
   -2.4133   -1.7530    0.0000 C   0  0
   -1.8032   -3.1233    0.0000 C   0  0
   -0.3114   -2.9665    0.0000 S   0  0
    0.0000   -1.5000    0.0000 C   0  0
  1  2  1  0
  2  3  2  0
  3  4  1  0
  4  5  1  0
  5  6  2  0
  6  7  1  0
  7  8  3  0
  4  9  2  0
  9 10  1  0
 10 11  1  0
 10 12  2  0
 12  2  1  0
 12 13  1  0
 13 14  1  0
 14 15  2  0
 15 16  1  0
 16 17  1  0
 17 18  1  0
 18 19  1  0
 19 20  1  0
 20 21  1  0
 21 22  1  0
 22 23  1  0
 23 24  2  0
 24 25  1  0
 25 26  2  0
 26 27  1  0
 27 28  2  0
 27 29  1  0
 26 30  1  0
 30 31  2  0
 31 23  1  0
 21 32  1  0
 32 33  1  0
 33 18  1  0
 16 34  2  0
 34 35  1  0
 35 36  1  0
 36 37  2  0
 37 38  1  0
 38 39  1  0
 39 14  1  0
 39 35  2  0
M  CHG  2  27   1  29  -1
M  END
> <Smiles>
Cc1cc(/C=C/C#N)cc(C)c1Oc1nc(NC2CCN(Cc3ccc([N+](=O)[O-])cc3)CC2)nc2ccsc12

> <IC50_uM>
0.0307

> <pIC50>
7.512861625

> <Activity>
1

$$$$

  SciTegic10102310092D

 29 31  0  0  0  0            999 V2000
   14.2905    0.7816    0.0000 N   0  0
   12.9891    1.5275    0.0000 S   0  0
   12.9848    3.0275    0.0000 O   0  0
   14.2859    2.2814    0.0000 O   0  0
   11.6919    0.7726    0.0000 C   0  0
   10.3903    1.5181    0.0000 C   0  0
    9.0939    0.7636    0.0000 C   0  0
    9.0990   -0.7364    0.0000 C   0  0
    7.8003   -1.4887    0.0000 N   0  0
    6.4990   -0.7409    0.0000 C   0  0
    6.4964    0.7591    0.0000 O   0  0
    5.2003   -1.4932    0.0000 C   0  0
    3.8990   -0.7455    0.0000 S   0  0
    2.6003   -1.4977    0.0000 C   0  0
    2.6030   -2.9977    0.0000 O   0  0
    1.2990   -0.7500    0.0000 N   0  0
    1.2990    0.7500    0.0000 C   0  0
    0.0000    1.5000    0.0000 C   0  0
   -1.2990    0.7500    0.0000 C   0  0
   -1.2990   -0.7500    0.0000 C   0  0
   -2.5981   -1.5000    0.0000 C   0  0
   -2.5981   -3.0000    0.0000 C   0  0
   -1.2990   -3.7500    0.0000 C   0  0
    0.0000   -3.0000    0.0000 C   0  0
    1.2991   -3.7500    0.0000 Cl  0  0
    0.0000   -1.5000    0.0000 C   0  0
   10.4007   -1.4818    0.0000 C   0  0
   10.4059   -2.9818    0.0000 Cl  0  0
   11.6971   -0.7274    0.0000 C   0  0
  1  2  1  0
  2  3  2  0
  2  4  2  0
  2  5  1  0
  5  6  2  0
  6  7  1  0
  7  8  2  0
  8  9  1  0
  9 10  1  0
 10 11  2  0
 10 12  1  0
 12 13  1  0
 13 14  1  0
 14 15  2  0
 14 16  1  0
 16 17  1  0
 17 18  1  0
 18 19  1  0
 19 20  1  0
 20 21  2  0
 21 22  1  0
 22 23  2  0
 23 24  1  0
 24 25  1  0
 24 26  2  0
 26 20  1  0
 26 16  1  0
  8 27  1  0
 27 28  1  0
 27 29  2  0
 29  5  1  0
M  END
> <Smiles>
NS(=O)(=O)c1ccc(NC(=O)CSC(=O)N2CCCc3cccc(Cl)c32)c(Cl)c1

> <IC50_uM>
0.031

> <pIC50>
7.508638306

> <Activity>
1

$$$$

  SciTegic10102310092D

 21 22  0  0  0  0            999 V2000
    3.8926   -3.7566    0.0000 C   0  0
    2.5951   -3.0039    0.0000 O   0  0
    2.5973   -1.5031    0.0000 C   0  0
    3.8976   -0.7553    0.0000 O   0  0
    1.2990   -0.7500    0.0000 C   0  0
    1.2990    0.7500    0.0000 C   0  0
    0.0000    1.5000    0.0000 C   0  0
   -1.2990    0.7500    0.0000 C   0  0
   -2.6003    1.4977    0.0000 C   0  0
   -2.6030    2.9977    0.0000 O   0  0
   -3.8990    0.7455    0.0000 C   0  0
   -5.2007    1.4909    0.0000 C   0  0
   -6.4972    0.7364    0.0000 C   0  0
   -7.7988    1.4819    0.0000 O   0  0
   -6.4920   -0.7636    0.0000 N   0  0
   -7.7884   -1.5181    0.0000 O   0  0
   -5.1903   -1.5091    0.0000 C   0  0
   -5.1851   -3.0091    0.0000 O   0  0
   -3.8939   -0.7546    0.0000 N   0  0
   -1.2990   -0.7500    0.0000 C   0  0
    0.0000   -1.5000    0.0000 C   0  0
  1  2  1  0
  2  3  1  0
  3  4  2  0
  3  5  1  0
  5  6  2  0
  6  7  1  0
  7  8  2  0
  8  9  1  0
  9 10  2  0
  9 11  1  0
 11 12  2  0
 12 13  1  0
 13 14  2  0
 13 15  1  0
 15 16  1  0
 15 17  1  0
 17 18  2  0
 17 19  1  0
 19 11  1  0
  8 20  1  0
 20 21  2  0
 21  5  1  0
M  END
> <Smiles>
COC(=O)c1ccc(C(=O)c2cc(=O)n(O)c(=O)[nH]2)cc1

> <IC50_uM>
0.031

> <pIC50>
7.508638306

> <Activity>
1

$$$$

  SciTegic10102310092D

 33 36  0  0  0  0            999 V2000
    2.5981   -1.5000    0.0000 C   0  0
    1.2990   -0.7500    0.0000 C   0  0
    1.2990    0.7500    0.0000 C   0  0
    2.5972    1.5031    0.0000 O   0  0
    2.5951    3.0039    0.0000 C   0  0
    1.2934    3.7495    0.0000 C   0  0
    1.2883    5.2495    0.0000 C   0  0
    2.5847    6.0040    0.0000 C   0  0
    2.5795    7.5040    0.0000 F   0  0
    3.8863    5.2585    0.0000 C   0  0
    3.8915    3.7585    0.0000 C   0  0
    5.1954    3.0153    0.0000 O   0  0
    6.4915    3.7721    0.0000 C   0  0
    7.7954    3.0289    0.0000 C   0  0
    9.0914    3.7857    0.0000 N   0  0
    9.0810    5.2858    0.0000 C   0  0
   10.3748    6.0448    0.0000 C   0  0
   11.6791    5.3038    0.0000 C   0  0
   12.9729    6.0629    0.0000 O   0  0
   11.6895    3.8039    0.0000 N   0  0
   10.3957    3.0449    0.0000 C   0  0
   10.4062    1.5449    0.0000 O   0  0
    0.0000    1.5000    0.0000 C   0  0
   -1.2990    0.7500    0.0000 C   0  0
   -2.5981    1.5000    0.0000 F   0  0
   -1.2990   -0.7500    0.0000 C   0  0
   -2.5981   -1.5000    0.0000 C   0  0
   -2.5981   -3.0000    0.0000 C   0  0
   -1.2990   -3.7500    0.0000 C   0  0
   -1.2990   -5.2508    0.0000 C   0  0
   -1.2990   -6.7508    0.0000 N   0  0
    0.0000   -3.0000    0.0000 C   0  0
    0.0000   -1.5000    0.0000 C   0  0
  1  2  1  0
  2  3  2  0
  3  4  1  0
  4  5  1  0
  5  6  2  0
  6  7  1  0
  7  8  2  0
  8  9  1  0
  8 10  1  0
 10 11  2  0
 11  5  1  0
 11 12  1  0
 12 13  1  0
 13 14  1  0
 14 15  1  0
 15 16  1  0
 16 17  2  0
 17 18  1  0
 18 19  2  0
 18 20  1  0
 20 21  1  0
 21 15  1  0
 21 22  2  0
  3 23  1  0
 23 24  2  0
 24 25  1  0
 24 26  1  0
 26 27  2  0
 27 28  1  0
 28 29  2  0
 29 30  1  0
 30 31  3  0
 29 32  1  0
 32 33  2  0
 33  2  1  0
 33 26  1  0
M  END
> <Smiles>
Cc1c(Oc2ccc(F)cc2OCCn2ccc(=O)[nH]c2=O)cc(F)c2ccc(C#N)cc12

> <IC50_uM>
0.031

> <pIC50>
7.508638306

> <Activity>
1

$$$$

  SciTegic10102310092D

 23 25  0  0  0  0            999 V2000
   -0.2237   -5.5078    0.0000 C   0  0
   -0.6890   -4.0818    0.0000 C   0  0
    0.3114   -2.9665    0.0000 C   0  0
    1.8032   -3.1233    0.0000 N   0  0
    2.4133   -1.7530    0.0000 N   0  0
    1.2990   -0.7500    0.0000 C   0  0
    1.2990    0.7500    0.0000 C   0  0
    0.0000    1.5000    0.0000 C   0  0
   -1.2990    0.7500    0.0000 C   0  0
   -2.5981    1.5000    0.0000 F   0  0
   -1.2990   -0.7500    0.0000 C   0  0
   -2.6003   -1.4978    0.0000 O   0  0
   -3.8990   -0.7455    0.0000 C   0  0
   -5.2007   -1.4909    0.0000 C   0  0
   -6.4972   -0.7365    0.0000 C   0  0
   -7.7995   -1.4824    0.0000 C   0  0
   -9.1011   -2.2279    0.0000 N   0  0
   -6.4920    0.7635    0.0000 C   0  0
   -5.1903    1.5090    0.0000 C   0  0
   -5.1852    3.0099    0.0000 C   0  0
   -5.1800    4.5099    0.0000 N   0  0
   -3.8939    0.7546    0.0000 C   0  0
    0.0000   -1.5000    0.0000 C   0  0
  1  2  1  0
  2  3  1  0
  3  4  2  0
  4  5  1  0
  5  6  1  0
  6  7  2  0
  7  8  1  0
  8  9  2  0
  9 10  1  0
  9 11  1  0
 11 12  1  0
 12 13  1  0
 13 14  2  0
 14 15  1  0
 15 16  1  0
 16 17  3  0
 15 18  2  0
 18 19  1  0
 19 20  1  0
 20 21  3  0
 19 22  2  0
 22 13  1  0
 11 23  2  0
 23  3  1  0
 23  6  1  0
M  END
> <Smiles>
CCc1n[nH]c2ccc(F)c(Oc3cc(C#N)cc(C#N)c3)c12

> <IC50_uM>
0.032

> <pIC50>
7.494850022

> <Activity>
1

$$$$

  SciTegic10102310092D

 31 34  0  0  0  0            999 V2000
    3.1676   -7.5606    0.0000 C   0  0
    1.7006   -7.2475    0.0000 C   0  0
    0.6960   -8.3614    0.0000 C   0  0
   -0.7710   -8.0483    0.0000 C   0  0
   -1.7756   -9.1622    0.0000 C   0  0
   -1.2333   -6.6213    0.0000 C   0  0
   -0.2287   -5.5075    0.0000 C   0  0
   -0.6913   -4.0797    0.0000 S   0  0
   -2.1584   -3.7671    0.0000 O   0  0
   -1.6957   -5.1937    0.0000 O   0  0
    0.3114   -2.9665    0.0000 C   0  0
    1.8032   -3.1233    0.0000 C   0  0
    2.5551   -4.4192    0.0000 C   0  0
    1.8074   -5.7196    0.0000 O   0  0
    4.0559   -4.4171    0.0000 N   0  0
    4.8090   -5.7153    0.0000 C   0  0
    6.3098   -5.7131    0.0000 C   0  0
    7.0644   -7.0095    0.0000 C   0  0
    8.5644   -7.0043    0.0000 C   0  0
    9.3099   -5.7026    0.0000 C   0  0
    8.5554   -4.4062    0.0000 N   0  0
    7.0554   -4.4114    0.0000 C   0  0
    2.4133   -1.7530    0.0000 N   0  0
    1.2990   -0.7500    0.0000 C   0  0
    1.2990    0.7500    0.0000 C   0  0
    0.0000    1.5000    0.0000 C   0  0
   -1.2990    0.7500    0.0000 C   0  0
   -2.5981    1.5000    0.0000 Cl  0  0
   -1.2990   -0.7500    0.0000 C   0  0
    0.0000   -1.5000    0.0000 C   0  0
    1.2383   -5.8206    0.0000 C   0  0
  1  2  1  0
  2  3  2  0
  3  4  1  0
  4  5  1  0
  4  6  2  0
  6  7  1  0
  7  8  1  0
  8  9  2  0
  8 10  2  0
  8 11  1  0
 11 12  2  0
 12 13  1  0
 13 14  2  0
 13 15  1  0
 15 16  1  0
 16 17  1  0
 17 18  2  0
 18 19  1  0
 19 20  2  0
 20 21  1  0
 21 22  2  0
 22 17  1  0
 12 23  1  0
 23 24  1  0
 24 25  2  0
 25 26  1  0
 26 27  2  0
 27 28  1  0
 27 29  1  0
 29 30  2  0
 30 11  1  0
 30 24  1  0
  7 31  2  0
 31  2  1  0
M  END
> <Smiles>
Cc1cc(C)cc(S(=O)(=O)c2c(C(=O)NCc3cccnc3)[nH]c3ccc(Cl)cc23)c1

> <IC50_uM>
0.032

> <pIC50>
7.494850022

> <Activity>
1

$$$$

  SciTegic10102310092D

 33 36  0  0  0  0            999 V2000
    6.4983   -5.2520    0.0000 O   0  0
    5.1993   -4.5021    0.0000 C   0  0
    3.9005   -5.2525    0.0000 O   0  0
    5.1983   -3.0012    0.0000 C   0  0
    3.8985   -2.2508    0.0000 C   0  0
    2.5988   -1.5004    0.0000 C   0  0
    1.2990   -0.7500    0.0000 C   0  0
    1.2990    0.7500    0.0000 C   0  0
    0.0000    1.5000    0.0000 C   0  0
   -1.2990    0.7500    0.0000 C   0  0
   -2.5973    1.5031    0.0000 N   0  0
   -2.5951    3.0039    0.0000 C   0  0
   -1.2948    3.7516    0.0000 O   0  0
   -3.8933    3.7570    0.0000 C   0  0
   -3.8912    5.2578    0.0000 S   0  0
   -5.1894    6.0109    0.0000 C   0  0
   -6.5408    5.3898    0.0000 N   0  0
   -7.5445    6.5046    0.0000 N   0  0
   -6.7945    7.8036    0.0000 N   0  0
   -5.3273    7.4917    0.0000 N   0  0
   -4.2061    8.4893    0.0000 C   0  0
   -4.6302    9.9300    0.0000 C   0  0
   -3.5923   11.0129    0.0000 C   0  0
   -2.1355   10.6554    0.0000 C   0  0
   -1.0970   11.7388    0.0000 C   0  0
   -0.8006   13.1292    0.0000 C   0  0
    0.2807   12.0895    0.0000 C   0  0
   -1.7166    9.2151    0.0000 C   0  0
   -2.7546    8.1322    0.0000 C   0  0
   -2.3362    6.6917    0.0000 Cl  0  0
   -1.2990   -0.7500    0.0000 C   0  0
   -2.5981   -1.5000    0.0000 Cl  0  0
    0.0000   -1.5000    0.0000 C   0  0
  1  2  2  0
  2  3  1  0
  2  4  1  0
  4  5  1  0
  5  6  3  0
  6  7  1  0
  7  8  2  0
  8  9  1  0
  9 10  2  0
 10 11  1  0
 11 12  1  0
 12 13  2  0
 12 14  1  0
 14 15  1  0
 15 16  1  0
 16 17  2  0
 17 18  1  0
 18 19  2  0
 19 20  1  0
 20 16  1  0
 20 21  1  0
 21 22  2  0
 22 23  1  0
 23 24  2  0
 24 25  1  0
 25 26  1  0
 26 27  1  0
 27 25  1  0
 24 28  1  0
 28 29  2  0
 29 21  1  0
 29 30  1  0
 10 31  1  0
 31 32  1  0
 31 33  2  0
 33  7  1  0
M  END
> <Smiles>
O=C(O)CC#Cc1ccc(NC(=O)CSc2nnnn2-c2ccc(C3CC3)cc2Cl)c(Cl)c1

> <IC50_uM>
0.032

> <pIC50>
7.494850022

> <Activity>
1

$$$$

  SciTegic10102310092D

 40 43  0  0  0  0            999 V2000
    3.8983   -0.7512    0.0000 C   0  0
    2.5988   -1.5004    0.0000 C   0  0
    2.5983   -3.0004    0.0000 C   0  0
    3.8975   -2.2510    0.0000 C   0  0
    1.2990   -0.7500    0.0000 C   0  0
    1.2990    0.7500    0.0000 C   0  0
    0.0000    1.5000    0.0000 C   0  0
   -1.2990    0.7500    0.0000 C   0  0
   -2.5987    1.5004    0.0000 N   0  0
   -3.9492    0.8772    0.0000 N   0  0
   -4.9546    1.9903    0.0000 N   0  0
   -4.2067    3.2905    0.0000 N   0  0
   -2.7390    2.9810    0.0000 C   0  0
   -1.6216    3.9790    0.0000 S   0  0
   -1.9268    5.4485    0.0000 C   0  0
   -0.8074    6.4482    0.0000 C   0  0
    0.6172    5.9785    0.0000 O   0  0
   -1.1126    7.9177    0.0000 N   0  0
    0.0068    8.9174    0.0000 C   0  0
    1.4306    8.4453    0.0000 C   0  0
    2.5514    9.4422    0.0000 C   0  0
    2.2485   10.9113    0.0000 C   0  0
    3.3698   11.9087    0.0000 C   0  0
    4.7944   11.4389    0.0000 C   0  0
    5.9136   12.4375    0.0000 C   0  0
    5.6083   13.9061    0.0000 C   0  0
    6.7282   14.9054    0.0000 C   0  0
    6.4224   16.3739    0.0000 C   0  0
    7.8469   15.9046    0.0000 C   0  0
    8.1537   14.4361    0.0000 C   0  0
    9.2729   15.4348    0.0000 O   0  0
    8.4595   12.9676    0.0000 O   0  0
    4.1839   14.3761    0.0000 C   0  0
    3.0646   13.3774    0.0000 C   0  0
    0.8247   11.3835    0.0000 C   0  0
   -0.2961   10.3866    0.0000 C   0  0
   -1.7198   10.8588    0.0000 Cl  0  0
   -1.2990   -0.7500    0.0000 C   0  0
   -2.5981   -1.5000    0.0000 Cl  0  0
    0.0000   -1.5000    0.0000 C   0  0
  1  2  1  0
  2  3  1  0
  2  4  1  0
  2  5  1  0
  5  6  2  0
  6  7  1  0
  7  8  2  0
  8  9  1  0
  9 10  1  0
 10 11  2  0
 11 12  1  0
 12 13  2  0
 13  9  1  0
 13 14  1  0
 14 15  1  0
 15 16  1  0
 16 17  2  0
 16 18  1  0
 18 19  1  0
 19 20  2  0
 20 21  1  0
 21 22  2  0
 22 23  1  0
 23 24  2  0
 24 25  1  0
 25 26  2  0
 26 27  1  0
 27 28  1  0
 27 29  1  0
 27 30  1  0
 30 31  2  0
 30 32  1  0
 26 33  1  0
 33 34  2  0
 34 23  1  0
 22 35  1  0
 35 36  2  0
 36 19  1  0
 36 37  1  0
  8 38  1  0
 38 39  1  0
 38 40  2  0
 40  5  1  0
M  END
> <Smiles>
CC(C)(C)c1ccc(-n2nnnc2SCC(=O)Nc2ccc(-c3ccc(C(C)(C)C(=O)O)cc3)cc2Cl)c(Cl)c1

> <IC50_uM>
0.033

> <pIC50>
7.48148606

> <Activity>
1

$$$$

  SciTegic10102310092D

 33 36  0  0  0  0            999 V2000
    2.5981   -1.5000    0.0000 C   0  0
    1.2990   -0.7500    0.0000 C   0  0
    1.2990    0.7500    0.0000 C   0  0
    0.0000    1.5000    0.0000 C   0  0
    0.0000    3.0008    0.0000 C   0  0
    0.0000    4.5008    0.0000 N   0  0
   -1.2990    0.7500    0.0000 C   0  0
   -1.2990   -0.7500    0.0000 C   0  0
   -2.5981   -1.5000    0.0000 C   0  0
    0.0000   -1.5000    0.0000 C   0  0
    0.0031   -3.0008    0.0000 O   0  0
    1.3039   -3.7494    0.0000 C   0  0
    1.3092   -5.2494    0.0000 C   0  0
    2.6108   -5.9949    0.0000 C   0  0
    3.9073   -5.2404    0.0000 N   0  0
    3.9021   -3.7404    0.0000 C   0  0
    5.1977   -2.9829    0.0000 N   0  0
    5.1903   -1.4820    0.0000 C   0  0
    6.4841   -0.7230    0.0000 C   0  0
    6.4738    0.7770    0.0000 C   0  0
    5.1696    1.5180    0.0000 N   0  0
    5.1592    3.0187    0.0000 C   0  0
    6.4518    3.7798    0.0000 C   0  0
    6.4390    5.2798    0.0000 C   0  0
    5.1337    6.0187    0.0000 C   0  0
    3.8411    5.2577    0.0000 C   0  0
    2.5334    5.9943    0.0000 C   0  0
    2.5181    7.4942    0.0000 N   0  0
    1.2419    5.2315    0.0000 O   0  0
    3.8538    3.7577    0.0000 C   0  0
    3.8757    0.7590    0.0000 C   0  0
    3.8861   -0.7410    0.0000 C   0  0
    2.6004   -2.9949    0.0000 N   0  0
  1  2  1  0
  2  3  2  0
  3  4  1  0
  4  5  1  0
  5  6  3  0
  4  7  2  0
  7  8  1  0
  8  9  1  0
  8 10  2  0
 10  2  1  0
 10 11  1  0
 11 12  1  0
 12 13  2  0
 13 14  1  0
 14 15  2  0
 15 16  1  0
 16 17  1  0
 17 18  1  0
 18 19  1  0
 19 20  1  0
 20 21  1  0
 21 22  1  0
 22 23  2  0
 23 24  1  0
 24 25  2  0
 25 26  1  0
 26 27  1  0
 27 28  1  0
 27 29  2  0
 26 30  2  0
 30 22  1  0
 21 31  1  0
 31 32  1  0
 32 18  1  0
 16 33  2  0
 33 12  1  0
M  END
> <Smiles>
Cc1cc(C#N)cc(C)c1Oc1ccnc(NC2CCN(c3cccc(C(N)=O)c3)CC2)n1

> <IC50_uM>
0.034

> <pIC50>
7.468521083

> <Activity>
1

$$$$

  SciTegic10102310092D

 32 35  0  0  0  0            999 V2000
    3.1676   -7.5606    0.0000 C   0  0
    1.7006   -7.2475    0.0000 C   0  0
    0.6960   -8.3614    0.0000 C   0  0
   -0.7710   -8.0483    0.0000 C   0  0
   -1.7756   -9.1622    0.0000 C   0  0
   -1.2333   -6.6213    0.0000 C   0  0
   -0.2287   -5.5075    0.0000 C   0  0
   -0.6913   -4.0797    0.0000 S   0  0
   -2.1584   -3.7671    0.0000 O   0  0
   -1.6957   -5.1937    0.0000 O   0  0
    0.3114   -2.9665    0.0000 C   0  0
    1.8032   -3.1233    0.0000 C   0  0
    2.5551   -4.4192    0.0000 C   0  0
    1.8074   -5.7196    0.0000 O   0  0
    4.0559   -4.4171    0.0000 N   0  0
    4.8090   -5.7153    0.0000 C   0  0
    6.3098   -5.7131    0.0000 N   0  0
    7.1739   -6.9236    0.0000 C   0  0
    8.5988   -6.4551    0.0000 C   0  0
    8.5936   -4.9551    0.0000 C   0  0
    7.1654   -4.4965    0.0000 C   0  0
    2.4133   -1.7530    0.0000 N   0  0
    1.2990   -0.7500    0.0000 C   0  0
    1.2990    0.7500    0.0000 C   0  0
    0.0000    1.5000    0.0000 C   0  0
   -1.2990    0.7500    0.0000 C   0  0
   -2.6003    1.4977    0.0000 N   0  3
   -3.8983    0.7459    0.0000 O   0  0
   -2.6030    2.9977    0.0000 O   0  5
   -1.2990   -0.7500    0.0000 C   0  0
    0.0000   -1.5000    0.0000 C   0  0
    1.2383   -5.8206    0.0000 C   0  0
  1  2  1  0
  2  3  2  0
  3  4  1  0
  4  5  1  0
  4  6  2  0
  6  7  1  0
  7  8  1  0
  8  9  2  0
  8 10  2  0
  8 11  1  0
 11 12  2  0
 12 13  1  0
 13 14  2  0
 13 15  1  0
 15 16  1  0
 16 17  1  0
 17 18  1  0
 18 19  1  0
 19 20  1  0
 20 21  1  0
 21 17  1  0
 12 22  1  0
 22 23  1  0
 23 24  2  0
 24 25  1  0
 25 26  2  0
 26 27  1  0
 27 28  2  0
 27 29  1  0
 26 30  1  0
 30 31  2  0
 31 11  1  0
 31 23  1  0
  7 32  2  0
 32  2  1  0
M  CHG  2  27   1  29  -1
M  END
> <Smiles>
Cc1cc(C)cc(S(=O)(=O)c2c(C(=O)NCN3CCCC3)[nH]c3ccc([N+](=O)[O-])cc23)c1

> <IC50_uM>
0.034

> <pIC50>
7.468521083

> <Activity>
1

$$$$

  SciTegic10102310092D

 37 41  0  0  0  0            999 V2000
    2.5923    1.5001    0.0000 C   0  0
    3.8939    0.7546    0.0000 C   0  0
    5.1903    1.5091    0.0000 C   0  0
    6.4920    0.7636    0.0000 C   0  0
    7.7907    1.5158    0.0000 C   0  0
    9.0920    0.7680    0.0000 C   0  0
   10.3907    1.5203    0.0000 C   0  0
   11.6886    2.2721    0.0000 N   0  0
    6.4972   -0.7364    0.0000 C   0  0
    5.2007   -1.4909    0.0000 C   0  0
    5.2059   -2.9909    0.0000 C   0  0
    3.8990   -0.7455    0.0000 C   0  0
    2.6003   -1.4977    0.0000 O   0  0
    1.2990   -0.7500    0.0000 C   0  0
    1.2990    0.7500    0.0000 N   0  0
    0.0000    1.5000    0.0000 C   0  0
   -0.0031    3.0008    0.0000 N   0  0
   -1.3039    3.7494    0.0000 C   0  0
   -1.3092    5.2494    0.0000 C   0  0
   -2.6108    5.9949    0.0000 C   0  0
   -3.9073    5.2404    0.0000 N   0  0
   -5.2112    5.9836    0.0000 C   0  0
   -6.5072    5.2269    0.0000 C   0  0
   -7.8115    5.9678    0.0000 C   0  0
   -9.1053    5.2088    0.0000 C   0  0
   -9.0949    3.7089    0.0000 C   0  0
  -10.3887    2.9499    0.0000 F   0  0
   -7.7907    2.9679    0.0000 C   0  0
   -6.4969    3.7269    0.0000 C   0  0
   -3.9021    3.7404    0.0000 C   0  0
   -2.6005    2.9949    0.0000 C   0  0
   -1.2990    0.7500    0.0000 N   0  0
   -1.2990   -0.7500    0.0000 C   0  0
   -2.4133   -1.7530    0.0000 C   0  0
   -1.8032   -3.1233    0.0000 C   0  0
   -0.3114   -2.9665    0.0000 S   0  0
    0.0000   -1.5000    0.0000 C   0  0
  1  2  1  0
  2  3  2  0
  3  4  1  0
  4  5  1  0
  5  6  2  0
  6  7  1  0
  7  8  3  0
  4  9  2  0
  9 10  1  0
 10 11  1  0
 10 12  2  0
 12  2  1  0
 12 13  1  0
 13 14  1  0
 14 15  2  0
 15 16  1  0
 16 17  1  0
 17 18  1  0
 18 19  1  0
 19 20  1  0
 20 21  1  0
 21 22  1  0
 22 23  1  0
 23 24  2  0
 24 25  1  0
 25 26  2  0
 26 27  1  0
 26 28  1  0
 28 29  2  0
 29 23  1  0
 21 30  1  0
 30 31  1  0
 31 18  1  0
 16 32  2  0
 32 33  1  0
 33 34  1  0
 34 35  2  0
 35 36  1  0
 36 37  1  0
 37 14  1  0
 37 33  2  0
M  END
> <Smiles>
Cc1cc(/C=C/C#N)cc(C)c1Oc1nc(NC2CCN(Cc3ccc(F)cc3)CC2)nc2ccsc12

> <IC50_uM>
0.0349

> <pIC50>
7.457174573

> <Activity>
1

$$$$

  SciTegic10102310092D

 32 35  0  0  0  0            999 V2000
    3.8805   -1.4410    0.0000 O   0  0
    2.4133   -1.7530    0.0000 C   0  0
    1.2990   -0.7500    0.0000 C   0  0
    1.2990    0.7500    0.0000 C   0  0
    0.0000    1.5000    0.0000 C   0  0
   -1.2990    0.7500    0.0000 C   0  0
   -1.2990   -0.7500    0.0000 C   0  0
    0.0000   -1.5000    0.0000 C   0  0
    0.3114   -2.9665    0.0000 C   0  0
   -0.6923   -4.0811    0.0000 O   0  0
    1.8032   -3.1233    0.0000 N   0  0
    2.5551   -4.4192    0.0000 C   0  0
    4.0559   -4.4171    0.0000 C   0  0
    4.8090   -5.7153    0.0000 O   0  0
    6.3098   -5.7131    0.0000 C   0  0
    7.0575   -4.4128    0.0000 S   0  0
    7.0629   -7.0113    0.0000 N   0  0
    8.5637   -7.0091    0.0000 C   0  0
    9.3115   -5.7088    0.0000 O   0  0
    9.3168   -8.3073    0.0000 C   0  0
   10.8169   -8.3074    0.0000 C   0  0
   11.5669   -9.6064    0.0000 C   0  0
   10.8170  -10.9054    0.0000 C   0  0
    9.3170  -10.9055    0.0000 C   0  0
    8.5669   -9.6065    0.0000 C   0  0
    6.3148   -8.3123    0.0000 C   0  0
    7.0653   -9.6112    0.0000 C   0  0
    6.3158  -10.9105    0.0000 C   0  0
    4.8158  -10.9111    0.0000 C   0  0
    4.0663  -12.2104    0.0000 Br  0  0
    4.0653   -9.6124    0.0000 C   0  0
    4.8148   -8.3130    0.0000 C   0  0
  1  2  2  0
  2  3  1  0
  3  4  2  0
  4  5  1  0
  5  6  2  0
  6  7  1  0
  7  8  2  0
  8  3  1  0
  8  9  1  0
  9 10  2  0
  9 11  1  0
 11  2  1  0
 11 12  1  0
 12 13  1  0
 13 14  1  0
 14 15  1  0
 15 16  2  0
 15 17  1  0
 17 18  1  0
 18 19  2  0
 18 20  1  0
 20 21  2  0
 21 22  1  0
 22 23  2  0
 23 24  1  0
 24 25  2  0
 25 20  1  0
 17 26  1  0
 26 27  2  0
 27 28  1  0
 28 29  2  0
 29 30  1  0
 29 31  1  0
 31 32  2  0
 32 26  1  0
M  END
> <Smiles>
O=C1c2ccccc2C(=O)N1CCOC(=S)N(C(=O)c1ccccc1)c1ccc(Br)cc1

> <IC50_uM>
0.035

> <pIC50>
7.455931956

> <Activity>
1

$$$$

  SciTegic10102310092D

 38 40  0  0  0  0            999 V2000
    7.7919    1.5103    0.0000 C   0  0
    9.0933    0.7644    0.0000 C   0  0
    9.0990   -0.7364    0.0000 N   0  0
    7.8003   -1.4887    0.0000 C   0  0
    7.8029   -2.9887    0.0000 O   0  0
    6.4990   -0.7409    0.0000 S   0  0
    5.2003   -1.4932    0.0000 C   0  0
    3.8990   -0.7455    0.0000 C   0  0
    3.8964    0.7545    0.0000 O   0  0
    2.6003   -1.4977    0.0000 N   0  0
    1.2990   -0.7500    0.0000 C   0  0
    1.2990    0.7500    0.0000 C   0  0
    0.0000    1.5000    0.0000 C   0  0
   -1.2990    0.7500    0.0000 C   0  0
   -2.5987    1.5004    0.0000 C   0  0
   -2.6012    3.0004    0.0000 C   0  0
   -3.9015    3.7484    0.0000 C   0  0
   -5.1993    2.9963    0.0000 C   0  0
   -6.5018    3.7420    0.0000 C   0  0
   -7.7993    2.9876    0.0000 C   0  0
   -9.1010    3.7329    0.0000 O   0  0
   -7.7943    1.4876    0.0000 O   0  0
   -5.1969    1.4963    0.0000 C   0  0
   -3.8967    0.7484    0.0000 C   0  0
   -1.2990   -0.7500    0.0000 C   0  0
    0.0000   -1.5000    0.0000 C   0  0
    0.0000   -3.0000    0.0000 Cl  0  0
   10.4003   -1.4841    0.0000 C   0  0
   10.4004   -2.9842    0.0000 C   0  0
   11.6994   -3.7342    0.0000 C   0  0
   12.9985   -2.9841    0.0000 C   0  0
   14.2982   -3.7345    0.0000 C   0  0
   14.2992   -5.2345    0.0000 C   0  0
   15.5970   -2.9841    0.0000 C   0  0
   15.5977   -4.4839    0.0000 C   0  0
   12.9984   -1.4841    0.0000 C   0  0
   11.6994   -0.7342    0.0000 C   0  0
   11.6994    0.7658    0.0000 Cl  0  0
  1  2  1  0
  2  3  1  0
  3  4  1  0
  4  5  2  0
  4  6  1  0
  6  7  1  0
  7  8  1  0
  8  9  2  0
  8 10  1  0
 10 11  1  0
 11 12  2  0
 12 13  1  0
 13 14  2  0
 14 15  1  0
 15 16  2  0
 16 17  1  0
 17 18  2  0
 18 19  1  0
 19 20  1  0
 20 21  2  0
 20 22  1  0
 18 23  1  0
 23 24  2  0
 24 15  1  0
 14 25  1  0
 25 26  2  0
 26 11  1  0
 26 27  1  0
  3 28  1  0
 28 29  2  0
 29 30  1  0
 30 31  2  0
 31 32  1  0
 32 33  1  0
 32 34  1  0
 32 35  1  0
 31 36  1  0
 36 37  2  0
 37 28  1  0
 37 38  1  0
M  END
> <Smiles>
CCN(C(=O)SCC(=O)Nc1ccc(-c2ccc(CC(=O)O)cc2)cc1Cl)c1ccc(C(C)(C)C)cc1Cl

> <IC50_uM>
0.035

> <pIC50>
7.455931956

> <Activity>
1

$$$$

  SciTegic10102310092D

 38 42  0  0  0  0            999 V2000
   -5.2410  -10.4467    0.0000 C   0  0
   -3.9353   -9.7084    0.0000 O   0  0
   -2.6419  -10.4696    0.0000 C   0  0
   -2.6548  -11.9696    0.0000 O   0  0
   -1.3354   -9.7309    0.0000 C   0  0
   -0.0416  -10.4898    0.0000 C   0  0
    1.2626   -9.7488    0.0000 C   0  0
    1.2731   -8.2489    0.0000 C   0  0
    2.5765   -7.5048    0.0000 C   0  0
    2.5847   -6.0040    0.0000 N   0  0
    3.8864   -5.2585    0.0000 C   0  0
    3.8915   -3.7585    0.0000 C   0  0
    2.5951   -3.0039    0.0000 C   0  0
    2.5973   -1.5031    0.0000 N   0  0
    1.2990   -0.7500    0.0000 C   0  0
    1.2990    0.7500    0.0000 N   0  0
    0.0000    1.5000    0.0000 C   0  0
    0.0031    3.0008    0.0000 O   0  0
    1.3039    3.7494    0.0000 C   0  0
    1.3092    5.2494    0.0000 C   0  0
    0.0127    6.0039    0.0000 C   0  0
    2.6108    5.9949    0.0000 C   0  0
    3.9072    5.2405    0.0000 C   0  0
    5.2096    5.9864    0.0000 C   0  0
    6.5112    6.7319    0.0000 N   0  0
    3.9020    3.7405    0.0000 C   0  0
    2.6004    2.9949    0.0000 C   0  0
    2.5953    1.4950    0.0000 C   0  0
   -1.2990    0.7500    0.0000 C   0  0
   -2.7248    1.2135    0.0000 C   0  0
   -3.6065    0.0000    0.0000 C   0  0
   -2.7248   -1.2135    0.0000 S   0  0
   -1.2990   -0.7500    0.0000 C   0  0
    0.0000   -1.5000    0.0000 N   0  0
    1.2935   -3.7495    0.0000 C   0  0
    1.2883   -5.2495    0.0000 C   0  0
   -0.0209   -7.4899    0.0000 C   0  0
   -1.3250   -8.2309    0.0000 C   0  0
  1  2  1  0
  2  3  1  0
  3  4  2  0
  3  5  1  0
  5  6  2  0
  6  7  1  0
  7  8  2  0
  8  9  1  0
  9 10  1  0
 10 11  1  0
 11 12  1  0
 12 13  1  0
 13 14  1  0
 14 15  1  0
 15 16  2  0
 16 17  1  0
 17 18  1  0
 18 19  1  0
 19 20  2  0
 20 21  1  0
 20 22  1  0
 22 23  2  0
 23 24  1  0
 24 25  3  0
 23 26  1  0
 26 27  2  0
 27 19  1  0
 27 28  1  0
 17 29  2  0
 29 30  1  0
 30 31  2  0
 31 32  1  0
 32 33  1  0
 33 29  1  0
 33 34  2  0
 34 15  1  0
 13 35  1  0
 35 36  1  0
 36 10  1  0
  8 37  1  0
 37 38  2  0
 38  5  1  0
M  END
> <Smiles>
COC(=O)c1ccc(CN2CCC(Nc3nc(Oc4c(C)cc(C#N)cc4C)c4ccsc4n3)CC2)cc1

> <IC50_uM>
0.0356

> <pIC50>
7.448550002

> <Activity>
1

$$$$

  SciTegic10102310092D

 33 36  0  0  0  0            999 V2000
    2.5981   -1.5000    0.0000 C   0  0
    1.2990   -0.7500    0.0000 C   0  0
    1.2990    0.7500    0.0000 C   0  0
    0.0000    1.5000    0.0000 C   0  0
    0.0000    3.0008    0.0000 C   0  0
    0.0000    4.5008    0.0000 N   0  0
   -1.2990    0.7500    0.0000 C   0  0
   -1.2990   -0.7500    0.0000 C   0  0
   -2.5981   -1.5000    0.0000 Cl  0  0
    0.0000   -1.5000    0.0000 C   0  0
    0.0031   -3.0008    0.0000 N   0  0
    1.3039   -3.7494    0.0000 C   0  0
    1.3092   -5.2494    0.0000 C   0  0
    2.6108   -5.9949    0.0000 C   0  0
    3.9073   -5.2404    0.0000 N   0  0
    3.9021   -3.7404    0.0000 C   0  0
    5.1977   -2.9829    0.0000 N   0  0
    5.1903   -1.4820    0.0000 C   0  0
    6.4841   -0.7230    0.0000 C   0  0
    6.4738    0.7770    0.0000 C   0  0
    5.1696    1.5180    0.0000 N   0  0
    5.1592    3.0187    0.0000 C   0  0
    6.4518    3.7798    0.0000 C   0  0
    6.4390    5.2798    0.0000 C   0  0
    5.1337    6.0187    0.0000 C   0  0
    3.8411    5.2577    0.0000 C   0  0
    2.5334    5.9943    0.0000 C   0  0
    2.5181    7.4942    0.0000 N   0  0
    1.2419    5.2315    0.0000 O   0  0
    3.8538    3.7577    0.0000 C   0  0
    3.8757    0.7590    0.0000 C   0  0
    3.8861   -0.7410    0.0000 C   0  0
    2.6004   -2.9949    0.0000 N   0  0
  1  2  1  0
  2  3  2  0
  3  4  1  0
  4  5  1  0
  5  6  3  0
  4  7  2  0
  7  8  1  0
  8  9  1  0
  8 10  2  0
 10  2  1  0
 10 11  1  0
 11 12  1  0
 12 13  2  0
 13 14  1  0
 14 15  2  0
 15 16  1  0
 16 17  1  0
 17 18  1  0
 18 19  1  0
 19 20  1  0
 20 21  1  0
 21 22  1  0
 22 23  2  0
 23 24  1  0
 24 25  2  0
 25 26  1  0
 26 27  1  0
 27 28  1  0
 27 29  2  0
 26 30  2  0
 30 22  1  0
 21 31  1  0
 31 32  1  0
 32 18  1  0
 16 33  2  0
 33 12  1  0
M  END
> <Smiles>
Cc1cc(C#N)cc(Cl)c1Nc1ccnc(NC2CCN(c3cccc(C(N)=O)c3)CC2)n1

> <IC50_uM>
0.036

> <pIC50>
7.443697499

> <Activity>
1

$$$$

  SciTegic10102310092D

 32 34  0  0  0  0            999 V2000
    3.1676   -7.5606    0.0000 C   0  0
    1.7006   -7.2475    0.0000 C   0  0
    0.6960   -8.3614    0.0000 C   0  0
   -0.7710   -8.0483    0.0000 C   0  0
   -1.7756   -9.1622    0.0000 C   0  0
   -1.2333   -6.6213    0.0000 C   0  0
   -0.2287   -5.5075    0.0000 C   0  0
   -0.6913   -4.0797    0.0000 S   0  0
   -2.1584   -3.7671    0.0000 O   0  0
   -1.6957   -5.1937    0.0000 O   0  0
    0.3114   -2.9665    0.0000 C   0  0
    1.8032   -3.1233    0.0000 C   0  0
    2.5551   -4.4192    0.0000 C   0  0
    1.8074   -5.7196    0.0000 O   0  0
    4.0559   -4.4171    0.0000 N   0  0
    4.8090   -5.7153    0.0000 C   0  0  3  0  0  0
    4.0613   -7.0156    0.0000 C   0  0
    6.3098   -5.7131    0.0000 C   0  0
    7.0629   -7.0113    0.0000 S   0  0
    6.3152   -8.3116    0.0000 N   0  0
    8.5629   -7.0091    0.0000 O   0  0
    7.8150   -8.3091    0.0000 O   0  0
    2.4133   -1.7530    0.0000 N   0  0
    1.2990   -0.7500    0.0000 C   0  0
    1.2990    0.7500    0.0000 C   0  0
    0.0000    1.5000    0.0000 C   0  0
   -1.2990    0.7500    0.0000 C   0  0
   -2.5981    1.5000    0.0000 Cl  0  0
   -1.2990   -0.7500    0.0000 C   0  0
   -2.5981   -1.5000    0.0000 F   0  0
    0.0000   -1.5000    0.0000 C   0  0
    1.2383   -5.8206    0.0000 C   0  0
  1  2  1  0
  2  3  2  0
  3  4  1  0
  4  5  1  0
  4  6  2  0
  6  7  1  0
  7  8  1  0
  8  9  2  0
  8 10  2  0
  8 11  1  0
 11 12  2  0
 12 13  1  0
 13 14  2  0
 13 15  1  0
 15 16  1  0
 16 17  1  4
 16 18  1  0
 18 19  1  0
 19 20  1  0
 19 21  2  0
 19 22  2  0
 12 23  1  0
 23 24  1  0
 24 25  2  0
 25 26  1  0
 26 27  2  0
 27 28  1  0
 27 29  1  0
 29 30  1  0
 29 31  2  0
 31 11  1  0
 31 24  1  0
  7 32  2  0
 32  2  1  0
M  END
> <Smiles>
Cc1cc(C)cc(S(=O)(=O)c2c(C(=O)NC(C)CS(N)(=O)=O)[nH]c3ccc(Cl)c(F)c23)c1

> <IC50_uM>
0.036

> <pIC50>
7.443697499

> <Activity>
1

$$$$

  SciTegic10102310092D

 32 34  0  0  0  0            999 V2000
    3.8983   -0.7512    0.0000 C   0  0
    2.5988   -1.5004    0.0000 C   0  0
    2.5983   -3.0004    0.0000 C   0  0
    3.8975   -2.2510    0.0000 C   0  0
    1.2990   -0.7500    0.0000 C   0  0
    1.2990    0.7500    0.0000 C   0  0
    0.0000    1.5000    0.0000 C   0  0
   -1.2990    0.7500    0.0000 C   0  0
   -2.5987    1.5004    0.0000 N   0  0
   -3.9492    0.8772    0.0000 N   0  0
   -4.9546    1.9903    0.0000 N   0  0
   -4.2067    3.2905    0.0000 N   0  0
   -2.7390    2.9810    0.0000 C   0  0
   -1.6216    3.9790    0.0000 S   0  0
   -1.9268    5.4485    0.0000 C   0  0
   -0.8074    6.4482    0.0000 C   0  0
    0.6172    5.9785    0.0000 O   0  0
   -1.1126    7.9177    0.0000 N   0  0
    0.0068    8.9174    0.0000 C   0  0
    1.4306    8.4453    0.0000 C   0  0
    2.5514    9.4422    0.0000 C   0  0
    2.2485   10.9113    0.0000 C   0  0
    3.3699   11.9088    0.0000 S   0  0
    3.0665   13.3777    0.0000 N   0  0
    4.7939   11.4375    0.0000 O   0  0
    4.4902   12.9062    0.0000 O   0  0
    0.8247   11.3835    0.0000 C   0  0
   -0.2961   10.3866    0.0000 C   0  0
   -1.7198   10.8588    0.0000 Cl  0  0
   -1.2990   -0.7500    0.0000 C   0  0
   -2.5981   -1.5000    0.0000 Cl  0  0
    0.0000   -1.5000    0.0000 C   0  0
  1  2  1  0
  2  3  1  0
  2  4  1  0
  2  5  1  0
  5  6  2  0
  6  7  1  0
  7  8  2  0
  8  9  1  0
  9 10  1  0
 10 11  2  0
 11 12  1  0
 12 13  2  0
 13  9  1  0
 13 14  1  0
 14 15  1  0
 15 16  1  0
 16 17  2  0
 16 18  1  0
 18 19  1  0
 19 20  2  0
 20 21  1  0
 21 22  2  0
 22 23  1  0
 23 24  1  0
 23 25  2  0
 23 26  2  0
 22 27  1  0
 27 28  2  0
 28 19  1  0
 28 29  1  0
  8 30  1  0
 30 31  1  0
 30 32  2  0
 32  5  1  0
M  END
> <Smiles>
CC(C)(C)c1ccc(-n2nnnc2SCC(=O)Nc2ccc(S(N)(=O)=O)cc2Cl)c(Cl)c1

> <IC50_uM>
0.036

> <pIC50>
7.443697499

> <Activity>
1

$$$$

  SciTegic10102310092D

 20 22  0  0  0  0            999 V2000
   -2.6206   -2.3425    0.0000 C   0  0
   -2.1569   -3.7690    0.0000 C   0  0
   -0.6890   -4.0818    0.0000 C   0  0  3  0  0  0
   -0.2234   -5.5086    0.0000 C   0  0
   -1.2234   -6.6267    0.0000 C   0  0
   -0.7552   -8.0517    0.0000 C   0  0
    0.7130   -8.3588    0.0000 C   0  0
    1.7131   -7.2408    0.0000 C   0  0
    1.2449   -5.8157    0.0000 C   0  0
    0.3114   -2.9665    0.0000 N   0  0
    1.8032   -3.1233    0.0000 C   0  0
    2.5532   -4.4223    0.0000 O   0  0
    2.4133   -1.7530    0.0000 N   0  0
    1.2990   -0.7500    0.0000 C   0  0
    1.2990    0.7500    0.0000 C   0  0
    0.0000    1.5000    0.0000 C   0  0
   -1.2990    0.7500    0.0000 C   0  0
   -2.5981    1.5000    0.0000 Cl  0  0
   -1.2990   -0.7500    0.0000 C   0  0
    0.0000   -1.5000    0.0000 C   0  0
  1  2  1  0
  3  2  1  4
  3  4  1  0
  4  5  2  0
  5  6  1  0
  6  7  2  0
  7  8  1  0
  8  9  2  0
  9  4  1  0
  3 10  1  0
 10 11  1  0
 11 12  2  0
 11 13  1  0
 13 14  1  0
 14 15  2  0
 15 16  1  0
 16 17  2  0
 17 18  1  0
 17 19  1  0
 19 20  2  0
 20 14  1  0
 20 10  1  0
M  END
> <Smiles>
CCC(c1ccccc1)n1c(=O)[nH]c2ccc(Cl)cc21

> <IC50_uM>
0.036

> <pIC50>
7.443697499

> <Activity>
1

$$$$

  SciTegic10102310092D

 26 28  0  0  0  0            999 V2000
    2.5981   -1.5000    0.0000 O   0  0
    1.2990   -0.7500    0.0000 C   0  0
    1.2990    0.7500    0.0000 C   0  0
    0.0000    1.5000    0.0000 C   0  0
   -0.0031    3.0008    0.0000 C   0  0
   -1.3039    3.7494    0.0000 C   0  0
   -1.3092    5.2494    0.0000 C   0  0
   -2.6108    5.9949    0.0000 C   0  0
   -3.9073    5.2404    0.0000 C   0  0
   -3.9021    3.7404    0.0000 C   0  0
   -5.1992    2.9855    0.0000 C   0  0
   -6.5021    3.7289    0.0000 C   0  0
   -7.7973    2.9724    0.0000 C   0  0
   -7.7897    1.4724    0.0000 C   0  0
   -6.4869    0.7290    0.0000 C   0  0
   -6.4793   -0.7718    0.0000 C   0  0
   -7.7741   -1.5292    0.0000 F   0  0
   -5.1763   -1.5149    0.0000 F   0  0
   -6.4711   -2.2718    0.0000 F   0  0
   -5.1917    1.4855    0.0000 C   0  0
   -2.6005    2.9949    0.0000 C   0  0
   -1.2990    0.7500    0.0000 N   0  0
   -1.2990   -0.7500    0.0000 C   0  0
   -2.5981   -1.5000    0.0000 O   0  0
    0.0000   -1.5000    0.0000 N   0  0
    0.0000   -3.0000    0.0000 O   0  0
  1  2  2  0
  2  3  1  0
  3  4  2  0
  4  5  1  0
  5  6  1  0
  6  7  2  0
  7  8  1  0
  8  9  2  0
  9 10  1  0
 10 11  1  0
 11 12  2  0
 12 13  1  0
 13 14  2  0
 14 15  1  0
 15 16  1  0
 16 17  1  0
 16 18  1  0
 16 19  1  0
 15 20  2  0
 20 11  1  0
 10 21  2  0
 21  6  1  0
  4 22  1  0
 22 23  1  0
 23 24  2  0
 23 25  1  0
 25  2  1  0
 25 26  1  0
M  END
> <Smiles>
O=c1cc(Cc2cccc(-c3cccc(C(F)(F)F)c3)c2)[nH]c(=O)n1O

> <IC50_uM>
0.037

> <pIC50>
7.431798276

> <Activity>
1

$$$$

  SciTegic10102310092D

 34 37  0  0  0  0            999 V2000
    2.5981   -1.5000    0.0000 C   0  0
    1.2990   -0.7500    0.0000 C   0  0
    1.2990    0.7500    0.0000 C   0  0
    0.0000    1.5000    0.0000 C   0  0
    0.0000    3.0008    0.0000 C   0  0
    0.0000    4.5008    0.0000 N   0  0
   -1.2990    0.7500    0.0000 C   0  0
   -1.2990   -0.7500    0.0000 C   0  0
   -2.5981   -1.5000    0.0000 C   0  0
    0.0000   -1.5000    0.0000 C   0  0
    0.0031   -3.0008    0.0000 O   0  0
    1.3039   -3.7494    0.0000 C   0  0
    2.6005   -2.9949    0.0000 N   0  0
    3.9021   -3.7404    0.0000 C   0  0
    5.2008   -2.9882    0.0000 N   0  0
    6.5021   -3.7360    0.0000 C   0  0
    7.8012   -2.9860    0.0000 C   0  0
    9.1002   -3.7360    0.0000 C   0  0
    9.1002   -5.2360    0.0000 N   0  0
   10.3984   -5.9891    0.0000 C   0  0
   10.3963   -7.4900    0.0000 C   0  0
   11.6927   -8.2445    0.0000 C   0  0
   11.6875   -9.7445    0.0000 C   0  0
   10.3859  -10.4900    0.0000 C   0  0
    9.0894   -9.7355    0.0000 C   0  0
    7.7871  -10.4814    0.0000 C   0  0
    6.4855  -11.2270    0.0000 N   0  0
    9.0946   -8.2355    0.0000 C   0  0
    7.8012   -5.9860    0.0000 C   0  0
    6.5021   -5.2360    0.0000 C   0  0
    3.9073   -5.2404    0.0000 N   0  0
    2.6108   -5.9949    0.0000 C   0  0
    1.3092   -5.2494    0.0000 C   0  0
    0.0128   -6.0039    0.0000 Br  0  0
  1  2  1  0
  2  3  2  0
  3  4  1  0
  4  5  1  0
  5  6  3  0
  4  7  2  0
  7  8  1  0
  8  9  1  0
  8 10  2  0
 10  2  1  0
 10 11  1  0
 11 12  1  0
 12 13  2  0
 13 14  1  0
 14 15  1  0
 15 16  1  0
 16 17  1  0
 17 18  1  0
 18 19  1  0
 19 20  1  0
 20 21  1  0
 21 22  2  0
 22 23  1  0
 23 24  2  0
 24 25  1  0
 25 26  1  0
 26 27  3  0
 25 28  2  0
 28 21  1  0
 19 29  1  0
 29 30  1  0
 30 16  1  0
 14 31  2  0
 31 32  1  0
 32 33  2  0
 33 12  1  0
 33 34  1  0
M  END
> <Smiles>
Cc1cc(C#N)cc(C)c1Oc1nc(NC2CCN(Cc3cccc(C#N)c3)CC2)ncc1Br

> <IC50_uM>
0.037

> <pIC50>
7.431798276

> <Activity>
1

$$$$

  SciTegic10102310092D

 38 42  0  0  0  0            999 V2000
    2.5923    1.5001    0.0000 C   0  0
    3.8939    0.7546    0.0000 C   0  0
    5.1903    1.5091    0.0000 C   0  0
    6.4920    0.7636    0.0000 C   0  0
    7.7907    1.5158    0.0000 C   0  0
    9.0920    0.7680    0.0000 C   0  0
   10.3907    1.5203    0.0000 C   0  0
   11.6886    2.2721    0.0000 N   0  0
    6.4972   -0.7364    0.0000 C   0  0
    5.2007   -1.4909    0.0000 C   0  0
    5.2059   -2.9909    0.0000 C   0  0
    3.8990   -0.7455    0.0000 C   0  0
    2.6003   -1.4977    0.0000 O   0  0
    1.2990   -0.7500    0.0000 C   0  0
    1.2990    0.7500    0.0000 N   0  0
    0.0000    1.5000    0.0000 C   0  0
   -0.0031    3.0008    0.0000 N   0  0
   -1.3039    3.7494    0.0000 C   0  0
   -1.3092    5.2494    0.0000 C   0  0
   -2.6108    5.9949    0.0000 C   0  0
   -3.9073    5.2404    0.0000 N   0  0
   -5.2112    5.9836    0.0000 C   0  0
   -6.5072    5.2269    0.0000 C   0  0
   -6.4969    3.7268    0.0000 C   0  0
   -7.7907    2.9679    0.0000 C   0  0
   -9.0949    3.7089    0.0000 C   0  0
   -9.1053    5.2088    0.0000 C   0  0
   -7.8115    5.9678    0.0000 C   0  0
   -7.8219    7.4686    0.0000 C   0  0
   -7.8324    8.9686    0.0000 N   0  0
   -3.9021    3.7404    0.0000 C   0  0
   -2.6005    2.9949    0.0000 C   0  0
   -1.2990    0.7500    0.0000 N   0  0
   -1.2990   -0.7500    0.0000 C   0  0
   -2.4133   -1.7530    0.0000 C   0  0
   -1.8032   -3.1233    0.0000 C   0  0
   -0.3114   -2.9665    0.0000 S   0  0
    0.0000   -1.5000    0.0000 C   0  0
  1  2  1  0
  2  3  2  0
  3  4  1  0
  4  5  1  0
  5  6  2  0
  6  7  1  0
  7  8  3  0
  4  9  2  0
  9 10  1  0
 10 11  1  0
 10 12  2  0
 12  2  1  0
 12 13  1  0
 13 14  1  0
 14 15  2  0
 15 16  1  0
 16 17  1  0
 17 18  1  0
 18 19  1  0
 19 20  1  0
 20 21  1  0
 21 22  1  0
 22 23  1  0
 23 24  2  0
 24 25  1  0
 25 26  2  0
 26 27  1  0
 27 28  2  0
 28 23  1  0
 28 29  1  0
 29 30  3  0
 21 31  1  0
 31 32  1  0
 32 18  1  0
 16 33  2  0
 33 34  1  0
 34 35  1  0
 35 36  2  0
 36 37  1  0
 37 38  1  0
 38 14  1  0
 38 34  2  0
M  END
> <Smiles>
Cc1cc(/C=C/C#N)cc(C)c1Oc1nc(NC2CCN(Cc3ccccc3C#N)CC2)nc2ccsc12

> <IC50_uM>
0.0378

> <pIC50>
7.4225082

> <Activity>
1

$$$$

  SciTegic10102310092D

 37 39  0  0  0  0            999 V2000
   11.6472   -1.8255    0.0000 C   0  0
   10.1554   -1.9824    0.0000 C   0  0
    9.4054   -3.2814    0.0000 N   0  0
    7.9382   -2.9695    0.0000 N   0  0
    7.8003   -1.4887    0.0000 C   0  0
    6.4990   -0.7409    0.0000 O   0  0
    5.2003   -1.4932    0.0000 C   0  0
    3.8990   -0.7455    0.0000 C   0  0
    3.8964    0.7545    0.0000 O   0  0
    2.6003   -1.4977    0.0000 N   0  0
    1.2990   -0.7500    0.0000 C   0  0
    1.2990    0.7500    0.0000 C   0  0
    0.0000    1.5000    0.0000 C   0  0
   -1.2990    0.7500    0.0000 C   0  0
   -2.5988    1.5004    0.0000 C   0  0
   -3.8986    2.2508    0.0000 C   0  0
   -5.1983    3.0012    0.0000 C   0  0
   -6.4971    2.2508    0.0000 C   0  0
   -5.1981    1.5012    0.0000 C   0  0
   -5.1993    4.5020    0.0000 C   0  0
   -6.4983    5.2520    0.0000 O   0  0
   -3.9005    5.2525    0.0000 O   0  0
   -1.2990   -0.7500    0.0000 C   0  0
    0.0000   -1.5000    0.0000 C   0  0
    0.0000   -3.0000    0.0000 Cl  0  0
    9.1517   -0.8676    0.0000 C   0  0
    9.4550    0.6021    0.0000 C   0  0
   10.9147    0.9552    0.0000 C   0  0
   11.3335    2.3955    0.0000 C   0  0
   10.2956    3.4784    0.0000 C   0  0
   10.7146    4.9195    0.0000 C   0  0
   12.1712    5.2779    0.0000 C   0  0
    9.6763    6.0021    0.0000 C   0  0
   11.1327    6.3601    0.0000 C   0  0
    8.8388    3.1209    0.0000 C   0  0
    8.4200    1.6806    0.0000 C   0  0
    6.9633    1.3227    0.0000 Cl  0  0
  1  2  1  0
  2  3  1  0
  3  4  1  0
  4  5  2  0
  5  6  1  0
  6  7  1  0
  7  8  1  0
  8  9  2  0
  8 10  1  0
 10 11  1  0
 11 12  2  0
 12 13  1  0
 13 14  2  0
 14 15  1  0
 15 16  3  0
 16 17  1  0
 17 18  1  0
 17 19  1  0
 17 20  1  0
 20 21  2  0
 20 22  1  0
 14 23  1  0
 23 24  2  0
 24 11  1  0
 24 25  1  0
 26  5  1  4
 26  2  2  0
 26 27  1  0
 27 28  2  0
 28 29  1  0
 29 30  2  0
 30 31  1  0
 31 32  1  0
 31 33  1  0
 31 34  1  0
 30 35  1  0
 35 36  2  0
 36 27  1  0
 36 37  1  0
M  END
> <Smiles>
Cc1[nH]nc(OCC(=O)Nc2ccc(C#CC(C)(C)C(=O)O)cc2Cl)c1-c1ccc(C(C)(C)C)cc1Cl

> <IC50_uM>
0.038

> <pIC50>
7.420216403

> <Activity>
1

$$$$

  SciTegic10102310092D

 33 35  0  0  0  0            999 V2000
    3.8983   -0.7512    0.0000 C   0  0
    2.5988   -1.5004    0.0000 C   0  0
    2.5983   -3.0004    0.0000 C   0  0
    3.8975   -2.2510    0.0000 C   0  0
    1.2990   -0.7500    0.0000 C   0  0
    1.2990    0.7500    0.0000 C   0  0
    0.0000    1.5000    0.0000 C   0  0
   -1.2990    0.7500    0.0000 C   0  0
   -2.5987    1.5004    0.0000 N   0  0
   -3.9492    0.8772    0.0000 N   0  0
   -4.9546    1.9903    0.0000 N   0  0
   -4.2067    3.2905    0.0000 N   0  0
   -2.7390    2.9810    0.0000 C   0  0
   -1.6216    3.9790    0.0000 S   0  0
   -1.9268    5.4485    0.0000 C   0  0
   -0.8074    6.4482    0.0000 C   0  0
    0.6172    5.9785    0.0000 O   0  0
   -1.1126    7.9177    0.0000 N   0  0
    0.0068    8.9174    0.0000 C   0  0
    1.4306    8.4453    0.0000 C   0  0
    2.5514    9.4422    0.0000 C   0  0
    2.2485   10.9113    0.0000 C   0  0
    3.3699   11.9088    0.0000 C   0  0
    4.4913   12.9062    0.0000 C   0  0
    5.6127   13.9037    0.0000 C   0  0
    7.0368   13.4324    0.0000 O   0  0
    5.3093   15.3727    0.0000 O   0  0
    0.8247   11.3835    0.0000 C   0  0
   -0.2961   10.3866    0.0000 C   0  0
   -1.7198   10.8588    0.0000 Cl  0  0
   -1.2990   -0.7500    0.0000 C   0  0
   -2.5981   -1.5000    0.0000 Cl  0  0
    0.0000   -1.5000    0.0000 C   0  0
  1  2  1  0
  2  3  1  0
  2  4  1  0
  2  5  1  0
  5  6  2  0
  6  7  1  0
  7  8  2  0
  8  9  1  0
  9 10  1  0
 10 11  2  0
 11 12  1  0
 12 13  2  0
 13  9  1  0
 13 14  1  0
 14 15  1  0
 15 16  1  0
 16 17  2  0
 16 18  1  0
 18 19  1  0
 19 20  2  0
 20 21  1  0
 21 22  2  0
 22 23  1  0
 23 24  3  0
 24 25  1  0
 25 26  2  0
 25 27  1  0
 22 28  1  0
 28 29  2  0
 29 19  1  0
 29 30  1  0
  8 31  1  0
 31 32  1  0
 31 33  2  0
 33  5  1  0
M  END
> <Smiles>
CC(C)(C)c1ccc(-n2nnnc2SCC(=O)Nc2ccc(C#CC(=O)O)cc2Cl)c(Cl)c1

> <IC50_uM>
0.038

> <pIC50>
7.420216403

> <Activity>
1

$$$$

  SciTegic10102310092D

 27 29  0  0  0  0            999 V2000
    2.5981   -1.5000    0.0000 O   0  0
    1.2990   -0.7500    0.0000 C   0  0
    1.2990    0.7500    0.0000 C   0  0
    0.0000    1.5000    0.0000 C   0  0
   -0.0031    3.0008    0.0000 C   0  0
   -1.3039    3.7494    0.0000 C   0  0
   -1.3092    5.2494    0.0000 C   0  0
   -2.6108    5.9949    0.0000 C   0  0
   -3.9073    5.2404    0.0000 C   0  0
   -3.9021    3.7404    0.0000 C   0  0
   -5.1992    2.9855    0.0000 C   0  0
   -6.5021    3.7289    0.0000 C   0  0
   -7.7973    2.9724    0.0000 C   0  0
   -9.1001    3.7158    0.0000 Cl  0  0
   -7.7897    1.4724    0.0000 C   0  0
   -6.4869    0.7290    0.0000 C   0  0
   -6.4793   -0.7718    0.0000 C   0  0
   -7.7741   -1.5292    0.0000 F   0  0
   -5.1763   -1.5149    0.0000 F   0  0
   -6.4711   -2.2718    0.0000 F   0  0
   -5.1917    1.4855    0.0000 C   0  0
   -2.6005    2.9949    0.0000 C   0  0
   -1.2990    0.7500    0.0000 N   0  0
   -1.2990   -0.7500    0.0000 C   0  0
   -2.5981   -1.5000    0.0000 O   0  0
    0.0000   -1.5000    0.0000 N   0  0
    0.0000   -3.0000    0.0000 O   0  0
  1  2  2  0
  2  3  1  0
  3  4  2  0
  4  5  1  0
  5  6  1  0
  6  7  2  0
  7  8  1  0
  8  9  2  0
  9 10  1  0
 10 11  1  0
 11 12  2  0
 12 13  1  0
 13 14  1  0
 13 15  2  0
 15 16  1  0
 16 17  1  0
 17 18  1  0
 17 19  1  0
 17 20  1  0
 16 21  2  0
 21 11  1  0
 10 22  2  0
 22  6  1  0
  4 23  1  0
 23 24  1  0
 24 25  2  0
 24 26  1  0
 26  2  1  0
 26 27  1  0
M  END
> <Smiles>
O=c1cc(Cc2cccc(-c3cc(Cl)cc(C(F)(F)F)c3)c2)[nH]c(=O)n1O

> <IC50_uM>
0.038

> <pIC50>
7.420216403

> <Activity>
1

$$$$

  SciTegic10102310092D

 33 36  0  0  0  0            999 V2000
    5.1978   -4.5012    0.0000 C   0  0
    5.1983   -3.0012    0.0000 C   0  0
    6.4970   -3.7518    0.0000 C   0  0
    6.4978   -2.2520    0.0000 N   0  0
    3.8985   -2.2508    0.0000 C   0  0
    2.5988   -1.5004    0.0000 C   0  0
    1.2990   -0.7500    0.0000 C   0  0
    1.2990    0.7500    0.0000 C   0  0
    0.0000    1.5000    0.0000 C   0  0
   -1.2990    0.7500    0.0000 C   0  0
   -2.5973    1.5031    0.0000 N   0  0
   -2.5951    3.0039    0.0000 C   0  0
   -1.2948    3.7516    0.0000 O   0  0
   -3.8933    3.7570    0.0000 C   0  0
   -3.8912    5.2578    0.0000 S   0  0
   -5.1894    6.0109    0.0000 C   0  0
   -6.5408    5.3898    0.0000 N   0  0
   -7.5445    6.5046    0.0000 N   0  0
   -6.7945    7.8036    0.0000 N   0  0
   -5.3273    7.4917    0.0000 N   0  0
   -4.2061    8.4893    0.0000 C   0  0
   -4.6302    9.9300    0.0000 C   0  0
   -3.5923   11.0129    0.0000 C   0  0
   -2.1355   10.6554    0.0000 C   0  0
   -1.0970   11.7388    0.0000 C   0  0
   -0.8006   13.1292    0.0000 C   0  0
    0.2807   12.0895    0.0000 C   0  0
   -1.7166    9.2151    0.0000 C   0  0
   -2.7546    8.1322    0.0000 C   0  0
   -2.3362    6.6917    0.0000 Cl  0  0
   -1.2990   -0.7500    0.0000 C   0  0
   -2.5981   -1.5000    0.0000 Cl  0  0
    0.0000   -1.5000    0.0000 C   0  0
  1  2  1  0
  2  3  1  0
  2  4  1  0
  2  5  1  0
  5  6  3  0
  6  7  1  0
  7  8  2  0
  8  9  1  0
  9 10  2  0
 10 11  1  0
 11 12  1  0
 12 13  2  0
 12 14  1  0
 14 15  1  0
 15 16  1  0
 16 17  2  0
 17 18  1  0
 18 19  2  0
 19 20  1  0
 20 16  1  0
 20 21  1  0
 21 22  2  0
 22 23  1  0
 23 24  2  0
 24 25  1  0
 25 26  1  0
 26 27  1  0
 27 25  1  0
 24 28  1  0
 28 29  2  0
 29 21  1  0
 29 30  1  0
 10 31  1  0
 31 32  1  0
 31 33  2  0
 33  7  1  0
M  END
> <Smiles>
CC(C)(N)C#Cc1ccc(NC(=O)CSc2nnnn2-c2ccc(C3CC3)cc2Cl)c(Cl)c1

> <IC50_uM>
0.038

> <pIC50>
7.420216403

> <Activity>
1

$$$$

  SciTegic10102310092D

 29 31  0  0  0  0            999 V2000
    2.5981   -1.5000    0.0000 C   0  0
    1.2990   -0.7500    0.0000 C   0  0
    1.2990    0.7500    0.0000 C   0  0
    0.0000    1.5000    0.0000 C   0  0
   -1.2990    0.7500    0.0000 C   0  0
   -1.2990   -0.7500    0.0000 C   0  0
    0.0000   -1.5000    0.0000 C   0  0
   -0.0031   -3.0008    0.0000 N   0  0
   -1.3039   -3.7494    0.0000 C   0  0
   -2.6016   -2.9971    0.0000 O   0  0
   -1.3070   -5.2502    0.0000 C   0  0
   -2.6078   -5.9988    0.0000 O   0  0
   -2.6109   -7.4996    0.0000 C   0  0
   -1.3118   -8.2497    0.0000 C   0  0
   -1.3119   -9.7497    0.0000 C   0  0
   -2.6109  -10.4997    0.0000 C   0  0
   -2.6110  -11.9997    0.0000 Cl  0  0
   -3.9100   -9.7497    0.0000 C   0  0
   -3.9099   -8.2497    0.0000 C   0  0
   -5.2112   -7.5019    0.0000 C   0  0
   -5.2139   -6.0019    0.0000 O   0  0
   -6.5099   -8.2542    0.0000 C   0  0
   -7.8116   -7.5088    0.0000 C   0  0
   -9.1080   -8.2633    0.0000 C   0  0
  -10.4097   -7.5178    0.0000 F   0  0
   -9.1028   -9.7633    0.0000 C   0  0
   -7.8012  -10.5088    0.0000 C   0  0
   -7.7960  -12.0088    0.0000 F   0  0
   -6.5048   -9.7543    0.0000 C   0  0
  1  2  1  0
  2  3  2  0
  3  4  1  0
  4  5  2  0
  5  6  1  0
  6  7  2  0
  7  2  1  0
  7  8  1  0
  8  9  1  0
  9 10  2  0
  9 11  1  0
 11 12  1  0
 12 13  1  0
 13 14  2  0
 14 15  1  0
 15 16  2  0
 16 17  1  0
 16 18  1  0
 18 19  2  0
 19 13  1  0
 19 20  1  0
 20 21  2  0
 20 22  1  0
 22 23  2  0
 23 24  1  0
 24 25  1  0
 24 26  2  0
 26 27  1  0
 27 28  1  0
 27 29  2  0
 29 22  1  0
M  END
> <Smiles>
Cc1ccccc1NC(=O)COc1ccc(Cl)cc1C(=O)c1cc(F)cc(F)c1

> <IC50_uM>
0.03802

> <pIC50>
7.419987887

> <Activity>
1

$$$$

  SciTegic10102310092D

 38 42  0  0  0  0            999 V2000
    2.5923    1.5001    0.0000 C   0  0
    3.8939    0.7546    0.0000 C   0  0
    5.1903    1.5091    0.0000 C   0  0
    6.4920    0.7636    0.0000 C   0  0
    7.7891    1.5185    0.0000 C   0  0
    9.0856    2.2729    0.0000 N   0  0
    6.4972   -0.7364    0.0000 C   0  0
    5.2007   -1.4909    0.0000 C   0  0
    5.2059   -2.9909    0.0000 C   0  0
    3.8990   -0.7455    0.0000 C   0  0
    2.6003   -1.4977    0.0000 O   0  0
    1.2990   -0.7500    0.0000 C   0  0
    1.2990    0.7500    0.0000 N   0  0
    0.0000    1.5000    0.0000 C   0  0
   -0.0031    3.0008    0.0000 N   0  0
   -1.3039    3.7494    0.0000 C   0  0
   -1.3092    5.2494    0.0000 C   0  0
   -2.6108    5.9949    0.0000 C   0  0
   -3.9073    5.2404    0.0000 N   0  0
   -5.2112    5.9836    0.0000 C   0  0
   -6.5072    5.2269    0.0000 C   0  0
   -7.8115    5.9678    0.0000 C   0  0
   -9.1053    5.2088    0.0000 C   0  0
   -9.0949    3.7089    0.0000 C   0  0
  -10.3895    2.9495    0.0000 S   0  0
  -10.3786    1.4495    0.0000 N   0  0
  -11.6941    3.6896    0.0000 O   0  0
  -11.6829    2.1899    0.0000 O   0  0
   -7.7907    2.9679    0.0000 C   0  0
   -6.4969    3.7269    0.0000 C   0  0
   -3.9021    3.7404    0.0000 C   0  0
   -2.6005    2.9949    0.0000 C   0  0
   -1.2990    0.7500    0.0000 N   0  0
   -1.2990   -0.7500    0.0000 C   0  0
   -2.4133   -1.7530    0.0000 S   0  0
   -1.8032   -3.1233    0.0000 C   0  0
   -0.3114   -2.9665    0.0000 C   0  0
    0.0000   -1.5000    0.0000 C   0  0
  1  2  1  0
  2  3  2  0
  3  4  1  0
  4  5  1  0
  5  6  3  0
  4  7  2  0
  7  8  1  0
  8  9  1  0
  8 10  2  0
 10  2  1  0
 10 11  1  0
 11 12  1  0
 12 13  2  0
 13 14  1  0
 14 15  1  0
 15 16  1  0
 16 17  1  0
 17 18  1  0
 18 19  1  0
 19 20  1  0
 20 21  1  0
 21 22  2  0
 22 23  1  0
 23 24  2  0
 24 25  1  0
 25 26  1  0
 25 27  2  0
 25 28  2  0
 24 29  1  0
 29 30  2  0
 30 21  1  0
 19 31  1  0
 31 32  1  0
 32 16  1  0
 14 33  2  0
 33 34  1  0
 34 35  1  0
 35 36  1  0
 36 37  2  0
 37 38  1  0
 38 12  1  0
 38 34  2  0
M  END
> <Smiles>
Cc1cc(C#N)cc(C)c1Oc1nc(NC2CCN(Cc3ccc(S(N)(=O)=O)cc3)CC2)nc2sccc12

> <IC50_uM>
0.0387

> <pIC50>
7.412289035

> <Activity>
1

$$$$

  SciTegic10102310092D

 22 23  0  0  0  0            999 V2000
    8.3503   -2.7053    0.0000 C   0  0
    7.7450   -4.0777    0.0000 C   0  0
    8.6313   -5.2879    0.0000 C   0  0
    6.2556   -4.2405    0.0000 C   0  0
    5.2496   -3.1278    0.0000 S   0  0
    3.8995   -3.7516    0.0000 C   0  0
    2.5997   -3.0012    0.0000 N   0  0
    2.5988   -1.5004    0.0000 S   0  0
    3.8976   -0.7500    0.0000 O   0  0
    3.8982   -2.2498    0.0000 O   0  0
    1.2990   -0.7500    0.0000 C   0  0
    1.2990    0.7500    0.0000 C   0  0
    0.0000    1.5000    0.0000 C   0  0
    0.0000    3.0000    0.0000 Br  0  0
   -1.2990    0.7500    0.0000 C   0  0
   -1.2990   -0.7500    0.0000 C   0  0
    0.0000   -1.5000    0.0000 C   0  0
    0.0000   -3.0000    0.0000 O   0  0
    4.0404   -5.2322    0.0000 N   0  0
    2.9218   -6.2315    0.0000 C   0  0
    5.5083   -5.5411    0.0000 C   0  0
    6.1212   -6.9101    0.0000 Cl  0  0
  1  2  1  0
  2  3  1  0
  2  4  1  0
  4  5  1  0
  5  6  1  0
  6  7  2  0
  7  8  1  0
  8  9  2  0
  8 10  2  0
  8 11  1  0
 11 12  2  0
 12 13  1  0
 13 14  1  0
 13 15  2  0
 15 16  1  0
 16 17  2  0
 17 11  1  0
 17 18  1  0
  6 19  1  0
 19 20  1  0
 19 21  1  0
 21  4  2  0
 21 22  1  0
M  END
> <Smiles>
CC(C)c1s/c(=N\S(=O)(=O)c2cc(Br)ccc2O)n(C)c1Cl

> <IC50_uM>
0.03981

> <pIC50>
7.400007822

> <Activity>
1

$$$$

  SciTegic10102310092D

 25 27  0  0  0  0            999 V2000
    3.8978   -2.2504    0.0000 N   0  0
    2.5988   -1.5004    0.0000 C   0  0
    1.2990   -0.7500    0.0000 C   0  0
    1.2990    0.7500    0.0000 C   0  0
    0.0000    1.5000    0.0000 C   0  0
   -1.2990    0.7500    0.0000 C   0  0
   -2.6003    1.4977    0.0000 N   0  0
   -3.8990    0.7455    0.0000 C   0  0
   -5.2007    1.4909    0.0000 N   0  0
   -6.4972    0.7364    0.0000 C   0  0
   -7.7988    1.4819    0.0000 N   0  0
   -6.4920   -0.7636    0.0000 N   0  0
   -5.1903   -1.5091    0.0000 C   0  0
   -5.1821   -3.0099    0.0000 C   0  0
   -3.8787   -3.7540    0.0000 C   0  0
   -3.8682   -5.2539    0.0000 C   0  0
   -5.1620   -6.0130    0.0000 Cl  0  0
   -2.5640   -5.9949    0.0000 C   0  0
   -1.2702   -5.2360    0.0000 C   0  0
   -1.2805   -3.7360    0.0000 C   0  0
   -2.5847   -2.9950    0.0000 C   0  0
   -2.5951   -1.4950    0.0000 Cl  0  0
   -3.8939   -0.7546    0.0000 N   0  0
   -1.2990   -0.7500    0.0000 C   0  0
    0.0000   -1.5000    0.0000 C   0  0
  1  2  3  0
  2  3  1  0
  3  4  2  0
  4  5  1  0
  5  6  2  0
  6  7  1  0
  7  8  1  0
  8  9  2  0
  9 10  1  0
 10 11  1  0
 10 12  2  0
 12 13  1  0
 13 14  1  0
 14 15  1  0
 15 16  2  0
 16 17  1  0
 16 18  1  0
 18 19  2  0
 19 20  1  0
 20 21  2  0
 21 15  1  0
 21 22  1  0
 13 23  2  0
 23  8  1  0
  6 24  1  0
 24 25  2  0
 25  3  1  0
M  END
> <Smiles>
N#Cc1ccc(Nc2nc(N)nc(Cc3c(Cl)cccc3Cl)n2)cc1

> <IC50_uM>
0.04

> <pIC50>
7.397940009

> <Activity>
1

$$$$

  SciTegic10102310092D

 32 35  0  0  0  0            999 V2000
    3.1676   -7.5606    0.0000 C   0  0
    1.7006   -7.2475    0.0000 C   0  0
    0.6960   -8.3614    0.0000 C   0  0
   -0.7710   -8.0483    0.0000 C   0  0
   -1.7756   -9.1622    0.0000 C   0  0
   -1.2333   -6.6213    0.0000 C   0  0
   -0.2287   -5.5075    0.0000 C   0  0
   -0.6913   -4.0797    0.0000 S   0  0
   -2.1584   -3.7671    0.0000 O   0  0
   -1.6957   -5.1937    0.0000 O   0  0
    0.3114   -2.9665    0.0000 C   0  0
    1.8032   -3.1233    0.0000 C   0  0
    2.5551   -4.4192    0.0000 C   0  0
    1.8074   -5.7196    0.0000 O   0  0
    4.0559   -4.4171    0.0000 N   0  0
    4.8090   -5.7153    0.0000 C   0  0
    6.3098   -5.7131    0.0000 C   0  0
    7.0644   -7.0095    0.0000 C   0  0
    8.5644   -7.0043    0.0000 C   0  0
    9.3099   -5.7026    0.0000 C   0  0
    8.5554   -4.4062    0.0000 C   0  0
    7.0554   -4.4114    0.0000 C   0  0
    2.4133   -1.7530    0.0000 N   0  0
    1.2990   -0.7500    0.0000 C   0  0
    1.2990    0.7500    0.0000 C   0  0
    0.0000    1.5000    0.0000 C   0  0
   -1.2990    0.7500    0.0000 C   0  0
   -2.5981    1.5000    0.0000 Cl  0  0
   -1.2990   -0.7500    0.0000 C   0  0
   -2.5981   -1.5000    0.0000 F   0  0
    0.0000   -1.5000    0.0000 C   0  0
    1.2383   -5.8206    0.0000 C   0  0
  1  2  1  0
  2  3  2  0
  3  4  1  0
  4  5  1  0
  4  6  2  0
  6  7  1  0
  7  8  1  0
  8  9  2  0
  8 10  2  0
  8 11  1  0
 11 12  2  0
 12 13  1  0
 13 14  2  0
 13 15  1  0
 15 16  1  0
 16 17  1  0
 17 18  2  0
 18 19  1  0
 19 20  2  0
 20 21  1  0
 21 22  2  0
 22 17  1  0
 12 23  1  0
 23 24  1  0
 24 25  2  0
 25 26  1  0
 26 27  2  0
 27 28  1  0
 27 29  1  0
 29 30  1  0
 29 31  2  0
 31 11  1  0
 31 24  1  0
  7 32  2  0
 32  2  1  0
M  END
> <Smiles>
Cc1cc(C)cc(S(=O)(=O)c2c(C(=O)NCc3ccccc3)[nH]c3ccc(Cl)c(F)c23)c1

> <IC50_uM>
0.04

> <pIC50>
7.397940009

> <Activity>
1

$$$$

  SciTegic10102310092D

 32 35  0  0  0  0            999 V2000
    3.1676   -7.5606    0.0000 C   0  0
    1.7006   -7.2475    0.0000 C   0  0
    0.6960   -8.3614    0.0000 C   0  0
   -0.7710   -8.0483    0.0000 C   0  0
   -1.7756   -9.1622    0.0000 C   0  0
   -1.2333   -6.6213    0.0000 C   0  0
   -0.2287   -5.5075    0.0000 C   0  0
   -0.6913   -4.0797    0.0000 S   0  0
   -2.1584   -3.7671    0.0000 O   0  0
   -1.6957   -5.1937    0.0000 O   0  0
    0.3114   -2.9665    0.0000 C   0  0
    1.8032   -3.1233    0.0000 C   0  0
    2.5551   -4.4192    0.0000 C   0  0
    1.8074   -5.7196    0.0000 O   0  0
    4.0559   -4.4171    0.0000 N   0  0
    4.8090   -5.7153    0.0000 C   0  0
    6.3098   -5.7131    0.0000 C   0  0
    7.0644   -7.0095    0.0000 C   0  0
    8.5644   -7.0043    0.0000 C   0  0
    9.3099   -5.7026    0.0000 C   0  0
    8.5554   -4.4062    0.0000 C   0  0
    9.3009   -3.1046    0.0000 F   0  0
    7.0554   -4.4114    0.0000 C   0  0
    2.4133   -1.7530    0.0000 N   0  0
    1.2990   -0.7500    0.0000 C   0  0
    1.2990    0.7500    0.0000 C   0  0
    0.0000    1.5000    0.0000 C   0  0
   -1.2990    0.7500    0.0000 C   0  0
   -2.5981    1.5000    0.0000 Cl  0  0
   -1.2990   -0.7500    0.0000 C   0  0
    0.0000   -1.5000    0.0000 C   0  0
    1.2383   -5.8206    0.0000 C   0  0
  1  2  1  0
  2  3  2  0
  3  4  1  0
  4  5  1  0
  4  6  2  0
  6  7  1  0
  7  8  1  0
  8  9  2  0
  8 10  2  0
  8 11  1  0
 11 12  2  0
 12 13  1  0
 13 14  2  0
 13 15  1  0
 15 16  1  0
 16 17  1  0
 17 18  2  0
 18 19  1  0
 19 20  2  0
 20 21  1  0
 21 22  1  0
 21 23  2  0
 23 17  1  0
 12 24  1  0
 24 25  1  0
 25 26  2  0
 26 27  1  0
 27 28  2  0
 28 29  1  0
 28 30  1  0
 30 31  2  0
 31 11  1  0
 31 25  1  0
  7 32  2  0
 32  2  1  0
M  END
> <Smiles>
Cc1cc(C)cc(S(=O)(=O)c2c(C(=O)NCc3cccc(F)c3)[nH]c3ccc(Cl)cc23)c1

> <IC50_uM>
0.04

> <pIC50>
7.397940009

> <Activity>
1

$$$$

  SciTegic10102310092D

 32 35  0  0  0  0            999 V2000
    2.5981   -1.5000    0.0000 C   0  0
    1.2990   -0.7500    0.0000 C   0  0
    1.2990    0.7500    0.0000 C   0  0
    0.0000    1.5000    0.0000 C   0  0
    0.0000    3.0008    0.0000 C   0  0
    0.0000    4.5008    0.0000 N   0  0
   -1.2990    0.7500    0.0000 C   0  0
   -1.2990   -0.7500    0.0000 C   0  0
   -2.5981   -1.5000    0.0000 C   0  0
    0.0000   -1.5000    0.0000 C   0  0
    0.0031   -3.0008    0.0000 O   0  0
    1.3039   -3.7494    0.0000 C   0  0
    1.3092   -5.2494    0.0000 C   0  0
    2.6108   -5.9949    0.0000 C   0  0
    2.6160   -7.4949    0.0000 Cl  0  0
    3.9073   -5.2404    0.0000 N   0  0
    3.9021   -3.7404    0.0000 C   0  0
    5.1977   -2.9829    0.0000 N   0  0
    5.1903   -1.4820    0.0000 C   0  0
    6.4841   -0.7230    0.0000 C   0  0
    6.4738    0.7770    0.0000 C   0  0
    5.1696    1.5180    0.0000 N   0  0
    5.1561    3.0188    0.0000 C   0  0
    3.8501    3.7583    0.0000 C   0  0
    3.8345    5.2582    0.0000 C   0  0
    2.5277    5.9947    0.0000 C   0  0
    1.2365    5.2313    0.0000 N   0  0
    1.2521    3.7314    0.0000 C   0  0
    2.5588    2.9949    0.0000 C   0  0
    3.8757    0.7590    0.0000 C   0  0
    3.8861   -0.7410    0.0000 C   0  0
    2.6004   -2.9949    0.0000 C   0  0
  1  2  1  0
  2  3  2  0
  3  4  1  0
  4  5  1  0
  5  6  3  0
  4  7  2  0
  7  8  1  0
  8  9  1  0
  8 10  2  0
 10  2  1  0
 10 11  1  0
 11 12  1  0
 12 13  2  0
 13 14  1  0
 14 15  1  0
 14 16  2  0
 16 17  1  0
 17 18  1  0
 18 19  1  0
 19 20  1  0
 20 21  1  0
 21 22  1  0
 22 23  1  0
 23 24  1  0
 24 25  2  0
 25 26  1  0
 26 27  2  0
 27 28  1  0
 28 29  2  0
 29 24  1  0
 22 30  1  0
 30 31  1  0
 31 19  1  0
 17 32  2  0
 32 12  1  0
M  END
> <Smiles>
Cc1cc(C#N)cc(C)c1Oc1cc(Cl)nc(NC2CCN(Cc3ccncc3)CC2)c1

> <IC50_uM>
0.04

> <pIC50>
7.397940009

> <Activity>
1

$$$$

  SciTegic10102310092D

 25 27  0  0  0  0            999 V2000
    3.9075   -3.7444    0.0000 C   0  0
    2.6060   -2.9986    0.0000 O   0  0
    2.6003   -1.4977    0.0000 C   0  0  3  0  0  0
    1.2990   -0.7500    0.0000 C   0  0
    1.2990    0.7500    0.0000 N   0  0
    0.0000    1.5000    0.0000 C   0  0
   -0.0031    3.0008    0.0000 N   0  0
   -1.3039    3.7494    0.0000 C   0  0
   -1.4470    5.2297    0.0000 C   0  0
   -2.9153    5.5365    0.0000 C   0  0
   -3.6607    4.2349    0.0000 C   0  0
   -2.6532    3.1236    0.0000 C   0  0
   -1.2990    0.7500    0.0000 N   0  0
   -1.2990   -0.7500    0.0000 C   0  0
   -2.5981   -1.5000    0.0000 O   0  0
    0.0000   -1.5000    0.0000 C   0  0
    0.0000   -3.0000    0.0000 C   0  0
    3.8990   -0.7455    0.0000 C   0  0
    5.2007   -1.4909    0.0000 C   0  0
    5.2060   -2.9909    0.0000 F   0  0
    6.4972   -0.7364    0.0000 C   0  0
    6.4920    0.7636    0.0000 C   0  0
    5.1903    1.5091    0.0000 C   0  0
    3.8939    0.7546    0.0000 C   0  0
    2.5923    1.5001    0.0000 Cl  0  0
  1  2  1  0
  3  2  1  4
  3  4  1  0
  4  5  1  0
  5  6  2  0
  6  7  1  0
  7  8  1  0
  8  9  1  0
  9 10  1  0
 10 11  1  0
 11 12  1  0
 12  8  1  0
  6 13  1  0
 13 14  1  0
 14 15  2  0
 14 16  1  0
 16  4  2  0
 16 17  1  0
  3 18  1  0
 18 19  2  0
 19 20  1  0
 19 21  1  0
 21 22  2  0
 22 23  1  0
 23 24  2  0
 24 18  1  0
 24 25  1  0
M  END
> <Smiles>
COC(c1nc(NC2CCCC2)[nH]c(=O)c1C)c1c(F)cccc1Cl

> <IC50_uM>
0.04

> <pIC50>
7.397940009

> <Activity>
1

$$$$

  SciTegic10102310092D

 29 31  0  0  0  0            999 V2000
    2.5951   -3.0031    0.0000 C   0  0
    2.5973   -1.5031    0.0000 O   0  0
    1.2990   -0.7500    0.0000 C   0  0
    1.2990    0.7500    0.0000 C   0  0
    0.0000    1.5000    0.0000 C   0  0
   -1.2990    0.7500    0.0000 C   0  0
   -2.6003    1.4977    0.0000 C   0  0
   -3.8990    0.7455    0.0000 S   0  0
   -5.2003    1.4932    0.0000 C   0  0
   -6.4994    0.7432    0.0000 N   0  0
   -7.7985    1.4932    0.0000 C   0  0
   -9.0967    0.7401    0.0000 C   0  0
  -10.3970    1.4878    0.0000 O   0  0
   -9.0945   -0.7608    0.0000 C   0  0
  -10.3909   -1.5154    0.0000 C   0  0
  -10.3857   -3.0154    0.0000 C   0  0
   -9.0840   -3.7608    0.0000 C   0  0
   -7.7876   -3.0063    0.0000 C   0  0
   -6.4860   -3.7518    0.0000 F   0  0
   -7.7928   -1.5063    0.0000 C   0  0
   -7.7985    2.9932    0.0000 C   0  0
   -9.0967    3.7462    0.0000 C   0  0
   -9.0947    5.2462    0.0000 C   0  0
  -10.3971    2.9985    0.0000 C   0  0
   -6.4995    3.7432    0.0000 C   0  0
   -6.4995    5.2432    0.0000 O   0  0
   -5.2004    2.9933    0.0000 N   0  0
   -1.2990   -0.7500    0.0000 C   0  0
    0.0000   -1.5000    0.0000 C   0  0
  1  2  1  0
  2  3  1  0
  3  4  2  0
  4  5  1  0
  5  6  2  0
  6  7  1  0
  7  8  1  0
  8  9  1  0
  9 10  2  0
 10 11  1  0
 11 12  1  0
 12 13  2  0
 12 14  1  0
 14 15  2  0
 15 16  1  0
 16 17  2  0
 17 18  1  0
 18 19  1  0
 18 20  2  0
 20 14  1  0
 11 21  2  0
 21 22  1  0
 22 23  1  0
 22 24  1  0
 21 25  1  0
 25 26  2  0
 25 27  1  0
 27  9  1  0
  6 28  1  0
 28 29  2  0
 29  3  1  0
M  END
> <Smiles>
COc1ccc(CSc2nc(C(=O)c3cccc(F)c3)c(C(C)C)c(=O)[nH]2)cc1

> <IC50_uM>
0.04

> <pIC50>
7.397940009

> <Activity>
1

$$$$

  SciTegic10102310092D

 37 41  0  0  0  0            999 V2000
    2.5923    1.5001    0.0000 C   0  0
    3.8939    0.7546    0.0000 C   0  0
    5.1903    1.5091    0.0000 C   0  0
    6.4920    0.7636    0.0000 C   0  0
    7.7907    1.5158    0.0000 C   0  0
    9.0920    0.7680    0.0000 C   0  0
   10.3907    1.5203    0.0000 C   0  0
   11.6886    2.2721    0.0000 N   0  0
    6.4972   -0.7364    0.0000 C   0  0
    5.2007   -1.4909    0.0000 C   0  0
    5.2059   -2.9909    0.0000 C   0  0
    3.8990   -0.7455    0.0000 C   0  0
    2.6003   -1.4977    0.0000 O   0  0
    1.2990   -0.7500    0.0000 C   0  0
    1.2990    0.7500    0.0000 N   0  0
    0.0000    1.5000    0.0000 C   0  0
   -0.0031    3.0008    0.0000 N   0  0
   -1.3039    3.7494    0.0000 C   0  0
   -1.3092    5.2494    0.0000 C   0  0
   -2.6108    5.9949    0.0000 C   0  0
   -3.9073    5.2404    0.0000 N   0  0
   -5.2112    5.9836    0.0000 C   0  0
   -6.5072    5.2269    0.0000 C   0  0
   -6.4969    3.7268    0.0000 C   0  0
   -7.7907    2.9679    0.0000 C   0  0
   -9.0949    3.7089    0.0000 C   0  0
   -9.1053    5.2088    0.0000 C   0  0
   -7.8115    5.9678    0.0000 C   0  0
   -7.8219    7.4678    0.0000 F   0  0
   -3.9021    3.7404    0.0000 C   0  0
   -2.6005    2.9949    0.0000 C   0  0
   -1.2990    0.7500    0.0000 N   0  0
   -1.2990   -0.7500    0.0000 C   0  0
   -2.4133   -1.7530    0.0000 C   0  0
   -1.8032   -3.1233    0.0000 C   0  0
   -0.3114   -2.9665    0.0000 S   0  0
    0.0000   -1.5000    0.0000 C   0  0
  1  2  1  0
  2  3  2  0
  3  4  1  0
  4  5  1  0
  5  6  2  0
  6  7  1  0
  7  8  3  0
  4  9  2  0
  9 10  1  0
 10 11  1  0
 10 12  2  0
 12  2  1  0
 12 13  1  0
 13 14  1  0
 14 15  2  0
 15 16  1  0
 16 17  1  0
 17 18  1  0
 18 19  1  0
 19 20  1  0
 20 21  1  0
 21 22  1  0
 22 23  1  0
 23 24  2  0
 24 25  1  0
 25 26  2  0
 26 27  1  0
 27 28  2  0
 28 23  1  0
 28 29  1  0
 21 30  1  0
 30 31  1  0
 31 18  1  0
 16 32  2  0
 32 33  1  0
 33 34  1  0
 34 35  2  0
 35 36  1  0
 36 37  1  0
 37 14  1  0
 37 33  2  0
M  END
> <Smiles>
Cc1cc(/C=C/C#N)cc(C)c1Oc1nc(NC2CCN(Cc3ccccc3F)CC2)nc2ccsc12

> <IC50_uM>
0.0406

> <pIC50>
7.391473966

> <Activity>
1

$$$$

  SciTegic10102310092D

 34 37  0  0  0  0            999 V2000
    2.5981   -1.5000    0.0000 C   0  0
    1.2990   -0.7500    0.0000 C   0  0
    1.2990    0.7500    0.0000 C   0  0
    0.0000    1.5000    0.0000 C   0  0
    0.0000    3.0008    0.0000 C   0  0
    0.0000    4.5008    0.0000 N   0  0
   -1.2990    0.7500    0.0000 C   0  0
   -1.2990   -0.7500    0.0000 C   0  0
   -2.5981   -1.5000    0.0000 C   0  0
    0.0000   -1.5000    0.0000 C   0  0
    0.0031   -3.0008    0.0000 O   0  0
    1.3039   -3.7494    0.0000 C   0  0
    2.6005   -2.9949    0.0000 N   0  0
    3.9021   -3.7404    0.0000 C   0  0
    5.2008   -2.9882    0.0000 N   0  0
    6.5021   -3.7360    0.0000 C   0  0
    7.8012   -2.9860    0.0000 C   0  0
    9.1002   -3.7360    0.0000 C   0  0
    9.1002   -5.2360    0.0000 N   0  0
   10.3984   -5.9891    0.0000 C   0  0
   10.3963   -7.4900    0.0000 C   0  0
   11.6927   -8.2445    0.0000 C   0  0
   11.6875   -9.7445    0.0000 C   0  0
   10.3859  -10.4900    0.0000 C   0  0
   10.3807  -11.9908    0.0000 C   0  0
   10.3755  -13.4908    0.0000 N   0  0
    9.0894   -9.7355    0.0000 C   0  0
    9.0946   -8.2355    0.0000 C   0  0
    7.8012   -5.9860    0.0000 C   0  0
    6.5021   -5.2360    0.0000 C   0  0
    3.9073   -5.2404    0.0000 N   0  0
    2.6108   -5.9949    0.0000 C   0  0
    1.3092   -5.2494    0.0000 C   0  0
    0.0128   -6.0039    0.0000 Br  0  0
  1  2  1  0
  2  3  2  0
  3  4  1  0
  4  5  1  0
  5  6  3  0
  4  7  2  0
  7  8  1  0
  8  9  1  0
  8 10  2  0
 10  2  1  0
 10 11  1  0
 11 12  1  0
 12 13  2  0
 13 14  1  0
 14 15  1  0
 15 16  1  0
 16 17  1  0
 17 18  1  0
 18 19  1  0
 19 20  1  0
 20 21  1  0
 21 22  2  0
 22 23  1  0
 23 24  2  0
 24 25  1  0
 25 26  3  0
 24 27  1  0
 27 28  2  0
 28 21  1  0
 19 29  1  0
 29 30  1  0
 30 16  1  0
 14 31  2  0
 31 32  1  0
 32 33  2  0
 33 12  1  0
 33 34  1  0
M  END
> <Smiles>
Cc1cc(C#N)cc(C)c1Oc1nc(NC2CCN(Cc3ccc(C#N)cc3)CC2)ncc1Br

> <IC50_uM>
0.041

> <pIC50>
7.387216143

> <Activity>
1

$$$$

  SciTegic10102310092D

 37 40  0  0  0  0            999 V2000
    2.5981   -1.5000    0.0000 C   0  0
    1.2990   -0.7500    0.0000 C   0  0
    1.2990    0.7500    0.0000 C   0  0
    0.0000    1.5000    0.0000 C   0  0
    0.0000    3.0008    0.0000 C   0  0
    0.0000    4.5008    0.0000 N   0  0
   -1.2990    0.7500    0.0000 C   0  0
   -1.2990   -0.7500    0.0000 C   0  0
   -2.5981   -1.5000    0.0000 C   0  0
    0.0000   -1.5000    0.0000 C   0  0
    0.0031   -3.0008    0.0000 O   0  0
    1.3039   -3.7494    0.0000 C   0  0
    2.6005   -2.9949    0.0000 N   0  0
    3.9021   -3.7404    0.0000 C   0  0
    5.2008   -2.9882    0.0000 N   0  0
    6.5021   -3.7360    0.0000 C   0  0
    7.8012   -2.9860    0.0000 C   0  0
    9.1002   -3.7360    0.0000 C   0  0
    9.1002   -5.2360    0.0000 N   0  0
   10.3999   -5.9864    0.0000 C   0  0
   11.7002   -5.2385    0.0000 C   0  0
   12.9981   -5.9906    0.0000 C   0  0
   12.9957   -7.4906    0.0000 C   0  0
   11.6954   -8.2385    0.0000 C   0  0
   11.6900   -9.7394    0.0000 C   0  0
   12.9865  -10.4937    0.0000 N   0  0
   10.3887  -10.4854    0.0000 O   0  0
   10.3976   -7.4865    0.0000 C   0  0
    7.8012   -5.9860    0.0000 C   0  0
    6.5021   -5.2360    0.0000 C   0  0
    3.9073   -5.2404    0.0000 N   0  0
    2.6108   -5.9949    0.0000 C   0  0
    1.3092   -5.2494    0.0000 C   0  0
    0.0121   -6.0044    0.0000 C   0  0
    0.0164   -7.5043    0.0000 F   0  0
   -1.2893   -5.2585    0.0000 F   0  0
   -1.2847   -6.7583    0.0000 F   0  0
  1  2  1  0
  2  3  2  0
  3  4  1  0
  4  5  1  0
  5  6  3  0
  4  7  2  0
  7  8  1  0
  8  9  1  0
  8 10  2  0
 10  2  1  0
 10 11  1  0
 11 12  1  0
 12 13  2  0
 13 14  1  0
 14 15  1  0
 15 16  1  0
 16 17  1  0
 17 18  1  0
 18 19  1  0
 19 20  1  0
 20 21  2  0
 21 22  1  0
 22 23  2  0
 23 24  1  0
 24 25  1  0
 25 26  1  0
 25 27  2  0
 24 28  2  0
 28 20  1  0
 19 29  1  0
 29 30  1  0
 30 16  1  0
 14 31  2  0
 31 32  1  0
 32 33  2  0
 33 12  1  0
 33 34  1  0
 34 35  1  0
 34 36  1  0
 34 37  1  0
M  END
> <Smiles>
Cc1cc(C#N)cc(C)c1Oc1nc(NC2CCN(c3cccc(C(N)=O)c3)CC2)ncc1C(F)(F)F

> <IC50_uM>
0.041

> <pIC50>
7.387216143

> <Activity>
1

$$$$

  SciTegic10102310092D

 34 37  0  0  0  0            999 V2000
    2.5981   -1.5000    0.0000 C   0  0
    1.2990   -0.7500    0.0000 C   0  0
    1.2990    0.7500    0.0000 C   0  0
    0.0000    1.5000    0.0000 C   0  0
    0.0000    3.0008    0.0000 C   0  0
    0.0000    4.5008    0.0000 N   0  0
   -1.2990    0.7500    0.0000 C   0  0
   -1.2990   -0.7500    0.0000 C   0  0
   -2.5981   -1.5000    0.0000 Cl  0  0
    0.0000   -1.5000    0.0000 C   0  0
    0.0031   -3.0008    0.0000 N   0  0
    1.3039   -3.7494    0.0000 C   0  0
    2.6005   -2.9949    0.0000 N   0  0
    3.9021   -3.7404    0.0000 C   0  0
    5.2008   -2.9882    0.0000 N   0  0
    6.5021   -3.7360    0.0000 C   0  0
    7.8012   -2.9860    0.0000 C   0  0
    9.1002   -3.7360    0.0000 C   0  0
    9.1002   -5.2360    0.0000 N   0  0
   10.3999   -5.9864    0.0000 C   0  0
   11.7002   -5.2385    0.0000 C   0  0
   12.9981   -5.9906    0.0000 C   0  0
   12.9957   -7.4906    0.0000 C   0  0
   11.6954   -8.2385    0.0000 C   0  0
   11.6900   -9.7394    0.0000 C   0  0
   12.9865  -10.4937    0.0000 N   0  0
   10.3887  -10.4854    0.0000 O   0  0
   10.3976   -7.4865    0.0000 C   0  0
    7.8012   -5.9860    0.0000 C   0  0
    6.5021   -5.2360    0.0000 C   0  0
    3.9073   -5.2404    0.0000 N   0  0
    2.6108   -5.9949    0.0000 C   0  0
    1.3092   -5.2494    0.0000 C   0  0
    0.0128   -6.0039    0.0000 Br  0  0
  1  2  1  0
  2  3  2  0
  3  4  1  0
  4  5  1  0
  5  6  3  0
  4  7  2  0
  7  8  1  0
  8  9  1  0
  8 10  2  0
 10  2  1  0
 10 11  1  0
 11 12  1  0
 12 13  2  0
 13 14  1  0
 14 15  1  0
 15 16  1  0
 16 17  1  0
 17 18  1  0
 18 19  1  0
 19 20  1  0
 20 21  2  0
 21 22  1  0
 22 23  2  0
 23 24  1  0
 24 25  1  0
 25 26  1  0
 25 27  2  0
 24 28  2  0
 28 20  1  0
 19 29  1  0
 29 30  1  0
 30 16  1  0
 14 31  2  0
 31 32  1  0
 32 33  2  0
 33 12  1  0
 33 34  1  0
M  END
> <Smiles>
Cc1cc(C#N)cc(Cl)c1Nc1nc(NC2CCN(c3cccc(C(N)=O)c3)CC2)ncc1Br

> <IC50_uM>
0.042

> <pIC50>
7.37675071

> <Activity>
1

$$$$

  SciTegic10102310092D

 27 29  0  0  0  0            999 V2000
    3.8978   -2.2504    0.0000 C   0  0
    2.5988   -1.5004    0.0000 C   0  0
    1.2990   -0.7500    0.0000 C   0  0
    1.2990    0.7500    0.0000 C   0  0
    0.0000    1.5000    0.0000 N   0  0
   -1.2990    0.7500    0.0000 C   0  0
   -2.6003    1.4977    0.0000 N   0  0
   -3.8990    0.7455    0.0000 C   0  0
   -5.2007    1.4909    0.0000 C   0  0
   -6.4972    0.7364    0.0000 C   0  0
   -6.4920   -0.7636    0.0000 C   0  0
   -7.7891   -1.5185    0.0000 C   0  0
   -9.0855   -2.2730    0.0000 N   0  0
   -5.1903   -1.5091    0.0000 C   0  0
   -3.8939   -0.7546    0.0000 C   0  0
   -1.2990   -0.7500    0.0000 N   0  0
    0.0000   -1.5000    0.0000 C   0  0
   -0.0031   -3.0008    0.0000 N   0  0
   -1.3039   -3.7494    0.0000 C   0  0
   -1.3092   -5.2494    0.0000 C   0  0
   -0.0128   -6.0039    0.0000 C   0  0
   -2.6108   -5.9949    0.0000 C   0  0
   -3.9072   -5.2404    0.0000 C   0  0
   -5.2089   -5.9859    0.0000 C   0  0
   -3.9020   -3.7404    0.0000 C   0  0
   -2.6004   -2.9949    0.0000 C   0  0
   -2.5953   -1.4949    0.0000 C   0  0
  1  2  3  0
  2  3  1  0
  3  4  2  0
  4  5  1  0
  5  6  2  0
  6  7  1  0
  7  8  1  0
  8  9  2  0
  9 10  1  0
 10 11  2  0
 11 12  1  0
 12 13  3  0
 11 14  1  0
 14 15  2  0
 15  8  1  0
  6 16  1  0
 16 17  2  0
 17  3  1  0
 17 18  1  0
 18 19  1  0
 19 20  2  0
 20 21  1  0
 20 22  1  0
 22 23  2  0
 23 24  1  0
 23 25  1  0
 25 26  2  0
 26 19  1  0
 26 27  1  0
M  END
> <Smiles>
C#Cc1cnc(Nc2ccc(C#N)cc2)nc1Nc1c(C)cc(C)cc1C

> <IC50_uM>
0.042

> <pIC50>
7.37675071

> <Activity>
1

$$$$

  SciTegic10102310092D

 35 39  0  0  0  0            999 V2000
    4.8689    3.5238    0.0000 O   0  0
    5.9880    2.5249    0.0000 C   0  0
    5.6819    1.0557    0.0000 C   0  0
    4.2567    0.5852    0.0000 S   0  0
    3.9511   -0.8815    0.0000 C   0  0
    4.9531   -1.9978    0.0000 N   0  0
    4.2010   -3.2956    0.0000 N   0  0
    2.7343   -2.9815    0.0000 N   0  0
    2.5987   -1.5004    0.0000 N   0  0
    1.2990   -0.7500    0.0000 C   0  0
    1.2990    0.7500    0.0000 C   0  0
    0.0000    1.5000    0.0000 C   0  0
   -1.2990    0.7500    0.0000 C   0  0
   -2.5987    1.5004    0.0000 C   0  0
   -3.2716    2.7526    0.0000 C   0  0
   -4.0195    1.4524    0.0000 C   0  0
   -1.2990   -0.7500    0.0000 C   0  0
    0.0000   -1.5000    0.0000 C   0  0
    0.0000   -3.0000    0.0000 Cl  0  0
    7.4132    2.9954    0.0000 N   0  0
    7.7193    4.4647    0.0000 C   0  0
    6.5985    5.4617    0.0000 C   0  0
    6.9014    6.9308    0.0000 C   0  0
    8.3252    7.4030    0.0000 C   0  0
    8.6283    8.8728    0.0000 C   0  0
    8.9314   10.3427    0.0000 C   0  0
    9.2345   11.8126    0.0000 C   0  0
    8.1108   12.8081    0.0000 C   0  0
    8.4099   14.2780    0.0000 O   0  0
    6.6882   12.3327    0.0000 O   0  0
   10.1041   12.8924    0.0000 C   0  0
   10.5777   11.4692    0.0000 C   0  0
    9.4460    6.4061    0.0000 C   0  0
    9.1430    4.9370    0.0000 C   0  0
   10.2639    3.9401    0.0000 Cl  0  0
  1  2  2  0
  2  3  1  0
  3  4  1  0
  4  5  1  0
  5  6  2  0
  6  7  1  0
  7  8  2  0
  8  9  1  0
  9  5  1  0
  9 10  1  0
 10 11  2  0
 11 12  1  0
 12 13  2  0
 13 14  1  0
 14 15  1  0
 15 16  1  0
 16 14  1  0
 13 17  1  0
 17 18  2  0
 18 10  1  0
 18 19  1  0
  2 20  1  0
 20 21  1  0
 21 22  2  0
 22 23  1  0
 23 24  2  0
 24 25  1  0
 25 26  3  0
 26 27  1  0
 27 28  1  0
 28 29  2  0
 28 30  1  0
 27 31  1  0
 31 32  1  0
 32 27  1  0
 24 33  1  0
 33 34  2  0
 34 21  1  0
 34 35  1  0
M  END
> <Smiles>
O=C(CSc1nnnn1-c1ccc(C2CC2)cc1Cl)Nc1ccc(C#CC2(C(=O)O)CC2)cc1Cl

> <IC50_uM>
0.043

> <pIC50>
7.366531544

> <Activity>
1

$$$$

  SciTegic10102310092D

 29 32  0  0  0  0            999 V2000
    3.8978   -2.2504    0.0000 C   0  0
    2.5988   -1.5004    0.0000 C   0  0
    1.2990   -0.7500    0.0000 C   0  0
    1.2990    0.7500    0.0000 C   0  0
    0.0000    1.5000    0.0000 C   0  0
   -1.2990    0.7500    0.0000 C   0  0
   -2.5973    1.5031    0.0000 N   0  0
   -2.5951    3.0039    0.0000 C   0  0
   -1.2948    3.7516    0.0000 O   0  0
   -3.8933    3.7570    0.0000 C   0  0
   -3.8912    5.2578    0.0000 S   0  0
   -5.1894    6.0109    0.0000 C   0  0
   -6.5408    5.3898    0.0000 N   0  0
   -7.5445    6.5046    0.0000 N   0  0
   -6.7945    7.8036    0.0000 N   0  0
   -5.3273    7.4917    0.0000 N   0  0
   -4.2061    8.4893    0.0000 C   0  0
   -4.6302    9.9300    0.0000 C   0  0
   -3.5923   11.0129    0.0000 C   0  0
   -2.1355   10.6554    0.0000 C   0  0
   -1.0970   11.7388    0.0000 C   0  0
   -0.8006   13.1292    0.0000 C   0  0
    0.2807   12.0895    0.0000 C   0  0
   -1.7166    9.2151    0.0000 C   0  0
   -2.7546    8.1322    0.0000 C   0  0
   -2.3362    6.6917    0.0000 Cl  0  0
   -1.2990   -0.7500    0.0000 C   0  0
   -2.5981   -1.5000    0.0000 Cl  0  0
    0.0000   -1.5000    0.0000 C   0  0
  1  2  3  0
  2  3  1  0
  3  4  2  0
  4  5  1  0
  5  6  2  0
  6  7  1  0
  7  8  1  0
  8  9  2  0
  8 10  1  0
 10 11  1  0
 11 12  1  0
 12 13  2  0
 13 14  1  0
 14 15  2  0
 15 16  1  0
 16 12  1  0
 16 17  1  0
 17 18  2  0
 18 19  1  0
 19 20  2  0
 20 21  1  0
 21 22  1  0
 22 23  1  0
 23 21  1  0
 20 24  1  0
 24 25  2  0
 25 17  1  0
 25 26  1  0
  6 27  1  0
 27 28  1  0
 27 29  2  0
 29  3  1  0
M  END
> <Smiles>
C#Cc1ccc(NC(=O)CSc2nnnn2-c2ccc(C3CC3)cc2Cl)c(Cl)c1

> <IC50_uM>
0.044

> <pIC50>
7.356547324

> <Activity>
1

$$$$

  SciTegic10102310092D

 32 35  0  0  0  0            999 V2000
    3.9054   -3.7444    0.0000 C   0  0
    5.2029   -2.9917    0.0000 C   0  0
    5.2007   -1.4909    0.0000 C   0  0
    6.4972   -0.7364    0.0000 C   0  0
    7.7988   -1.4819    0.0000 O   0  0
    6.4920    0.7636    0.0000 N   0  0
    5.1903    1.5091    0.0000 C   0  0
    5.1821    3.0099    0.0000 S   0  0
    3.8787    3.7539    0.0000 C   0  0
    3.8704    5.2547    0.0000 C   0  0
    5.1655    6.0115    0.0000 O   0  0
    2.5670    5.9988    0.0000 C   0  0
    2.5565    7.4988    0.0000 C   0  0
    1.2523    8.2398    0.0000 C   0  0
   -0.0415    7.4808    0.0000 C   0  0
   -1.3480    8.2195    0.0000 O   0  0
   -2.6407    7.4587    0.0000 C   0  0
   -0.0311    5.9809    0.0000 C   0  0
    1.2731    5.2399    0.0000 C   0  0
    3.8939    0.7546    0.0000 N   0  0
    3.8990   -0.7455    0.0000 C   0  0
    2.6003   -1.4977    0.0000 C   0  0
    1.2990   -0.7500    0.0000 C   0  0
    1.2990    0.7500    0.0000 C   0  0
    0.0000    1.5000    0.0000 C   0  0
   -1.2990    0.7500    0.0000 C   0  0
   -1.2990   -0.7500    0.0000 C   0  0
   -2.5981   -1.5000    0.0000 C   0  0
   -2.5981   -3.0000    0.0000 C   0  0
   -1.2990   -3.7500    0.0000 C   0  0
    0.0000   -3.0000    0.0000 C   0  0
    0.0000   -1.5000    0.0000 C   0  0
  1  2  1  0
  2  3  1  0
  3  4  2  0
  4  5  1  0
  4  6  1  0
  6  7  2  0
  7  8  1  0
  8  9  1  0
  9 10  1  0
 10 11  2  0
 10 12  1  0
 12 13  2  0
 13 14  1  0
 14 15  2  0
 15 16  1  0
 16 17  1  0
 15 18  1  0
 18 19  2  0
 19 12  1  0
  7 20  1  0
 20 21  2  0
 21  3  1  0
 21 22  1  0
 22 23  1  0
 23 24  2  0
 24 25  1  0
 25 26  2  0
 26 27  1  0
 27 28  2  0
 28 29  1  0
 29 30  2  0
 30 31  1  0
 31 32  2  0
 32 23  1  0
 32 27  1  0
M  END
> <Smiles>
CCc1c(O)nc(SCC(=O)c2ccc(OC)cc2)nc1Cc1cccc2ccccc12

> <IC50_uM>
0.045

> <pIC50>
7.346787486

> <Activity>
1

$$$$

  SciTegic10102310092D

 31 34  0  0  0  0            999 V2000
    3.1676   -7.5606    0.0000 C   0  0
    1.7006   -7.2475    0.0000 C   0  0
    0.6960   -8.3614    0.0000 C   0  0
   -0.7710   -8.0483    0.0000 C   0  0
   -1.7756   -9.1622    0.0000 C   0  0
   -1.2333   -6.6213    0.0000 C   0  0
   -0.2287   -5.5075    0.0000 C   0  0
   -0.6913   -4.0797    0.0000 S   0  0
   -2.1584   -3.7671    0.0000 O   0  0
   -1.6957   -5.1937    0.0000 O   0  0
    0.3114   -2.9665    0.0000 C   0  0
    1.8032   -3.1233    0.0000 C   0  0
    2.5551   -4.4192    0.0000 C   0  0
    1.8074   -5.7196    0.0000 O   0  0
    4.0559   -4.4171    0.0000 N   0  0
    4.8090   -5.7153    0.0000 C   0  0
    6.3098   -5.7131    0.0000 C   0  0
    7.0644   -7.0095    0.0000 C   0  0
    8.5644   -7.0043    0.0000 C   0  0
    9.3099   -5.7026    0.0000 N   0  0
    8.5554   -4.4062    0.0000 C   0  0
    7.0554   -4.4114    0.0000 C   0  0
    2.4133   -1.7530    0.0000 N   0  0
    1.2990   -0.7500    0.0000 C   0  0
    1.2990    0.7500    0.0000 C   0  0
    0.0000    1.5000    0.0000 C   0  0
   -1.2990    0.7500    0.0000 C   0  0
   -2.5981    1.5000    0.0000 Cl  0  0
   -1.2990   -0.7500    0.0000 C   0  0
    0.0000   -1.5000    0.0000 C   0  0
    1.2383   -5.8206    0.0000 C   0  0
  1  2  1  0
  2  3  2  0
  3  4  1  0
  4  5  1  0
  4  6  2  0
  6  7  1  0
  7  8  1  0
  8  9  2  0
  8 10  2  0
  8 11  1  0
 11 12  2  0
 12 13  1  0
 13 14  2  0
 13 15  1  0
 15 16  1  0
 16 17  1  0
 17 18  2  0
 18 19  1  0
 19 20  2  0
 20 21  1  0
 21 22  2  0
 22 17  1  0
 12 23  1  0
 23 24  1  0
 24 25  2  0
 25 26  1  0
 26 27  2  0
 27 28  1  0
 27 29  1  0
 29 30  2  0
 30 11  1  0
 30 24  1  0
  7 31  2  0
 31  2  1  0
M  END
> <Smiles>
Cc1cc(C)cc(S(=O)(=O)c2c(C(=O)NCc3ccncc3)[nH]c3ccc(Cl)cc23)c1

> <IC50_uM>
0.045

> <pIC50>
7.346787486

> <Activity>
1

$$$$

  SciTegic10102310092D

 31 34  0  0  0  0            999 V2000
    2.5983   -3.0004    0.0000 N   0  0
    2.5988   -1.5004    0.0000 S   0  0
    3.8983   -0.7512    0.0000 O   0  0
    3.8975   -2.2510    0.0000 O   0  0
    1.2990   -0.7500    0.0000 C   0  0
    1.2990    0.7500    0.0000 C   0  0
    0.0000    1.5000    0.0000 C   0  0
   -1.2990    0.7500    0.0000 C   0  0
   -2.5973    1.5031    0.0000 N   0  0
   -2.5951    3.0039    0.0000 C   0  0
   -1.2948    3.7516    0.0000 O   0  0
   -3.8933    3.7570    0.0000 C   0  0
   -3.8912    5.2578    0.0000 S   0  0
   -5.1894    6.0109    0.0000 C   0  0
   -6.5408    5.3898    0.0000 N   0  0
   -7.5445    6.5046    0.0000 N   0  0
   -6.7945    7.8036    0.0000 N   0  0
   -5.3273    7.4917    0.0000 N   0  0
   -4.2061    8.4893    0.0000 C   0  0
   -4.6302    9.9300    0.0000 C   0  0
   -3.5923   11.0129    0.0000 C   0  0
   -2.1355   10.6554    0.0000 C   0  0
   -1.0970   11.7388    0.0000 C   0  0
   -0.8006   13.1292    0.0000 C   0  0
    0.2807   12.0895    0.0000 C   0  0
   -1.7166    9.2151    0.0000 C   0  0
   -2.7546    8.1322    0.0000 C   0  0
   -2.3362    6.6917    0.0000 Cl  0  0
   -1.2990   -0.7500    0.0000 C   0  0
   -2.5981   -1.5000    0.0000 Cl  0  0
    0.0000   -1.5000    0.0000 C   0  0
  1  2  1  0
  2  3  2  0
  2  4  2  0
  2  5  1  0
  5  6  2  0
  6  7  1  0
  7  8  2  0
  8  9  1  0
  9 10  1  0
 10 11  2  0
 10 12  1  0
 12 13  1  0
 13 14  1  0
 14 15  2  0
 15 16  1  0
 16 17  2  0
 17 18  1  0
 18 14  1  0
 18 19  1  0
 19 20  2  0
 20 21  1  0
 21 22  2  0
 22 23  1  0
 23 24  1  0
 24 25  1  0
 25 23  1  0
 22 26  1  0
 26 27  2  0
 27 19  1  0
 27 28  1  0
  8 29  1  0
 29 30  1  0
 29 31  2  0
 31  5  1  0
M  END
> <Smiles>
NS(=O)(=O)c1ccc(NC(=O)CSc2nnnn2-c2ccc(C3CC3)cc2Cl)c(Cl)c1

> <IC50_uM>
0.045

> <pIC50>
7.346787486

> <Activity>
1

$$$$

  SciTegic10102310092D

 20 22  0  0  0  0            999 V2000
    3.1813   -7.5478    0.0000 C   0  0
    1.7131   -7.2408    0.0000 C   0  0
    0.7130   -8.3588    0.0000 C   0  0
   -0.7552   -8.0517    0.0000 C   0  0
   -1.7553   -9.1697    0.0000 C   0  0
   -1.2234   -6.6267    0.0000 C   0  0
   -0.2234   -5.5086    0.0000 C   0  0
   -0.6890   -4.0818    0.0000 C   0  0
    0.3114   -2.9665    0.0000 N   0  0
    1.8032   -3.1233    0.0000 C   0  0
    2.5532   -4.4223    0.0000 S   0  0
    2.4133   -1.7530    0.0000 N   0  0
    1.2990   -0.7500    0.0000 C   0  0
    1.2990    0.7500    0.0000 C   0  0
    0.0000    1.5000    0.0000 C   0  0
   -1.2990    0.7500    0.0000 C   0  0
   -2.5981    1.5000    0.0000 Cl  0  0
   -1.2990   -0.7500    0.0000 C   0  0
    0.0000   -1.5000    0.0000 C   0  0
    1.2449   -5.8157    0.0000 C   0  0
  1  2  1  0
  2  3  2  0
  3  4  1  0
  4  5  1  0
  4  6  2  0
  6  7  1  0
  7  8  1  0
  8  9  1  0
  9 10  1  0
 10 11  2  0
 10 12  1  0
 12 13  1  0
 13 14  2  0
 14 15  1  0
 15 16  2  0
 16 17  1  0
 16 18  1  0
 18 19  2  0
 19 13  1  0
 19  9  1  0
  7 20  2  0
 20  2  1  0
M  END
> <Smiles>
Cc1cc(C)cc(Cn2c(=S)[nH]c3ccc(Cl)cc32)c1

> <IC50_uM>
0.046

> <pIC50>
7.337242168

> <Activity>
1

$$$$

  SciTegic10102310092D

 36 39  0  0  0  0            999 V2000
    3.8983   -0.7459    0.0000 C   0  0
    2.6003   -1.4977    0.0000 O   0  0
    1.2990   -0.7500    0.0000 C   0  0
    1.2990    0.7500    0.0000 C   0  0
    0.0000    1.5000    0.0000 C   0  0
    0.0000    3.0000    0.0000 N   0  0
   -1.2991    3.7500    0.0000 C   0  0
   -1.3022    5.2508    0.0000 N   0  0
   -2.6030    5.9994    0.0000 C   0  0
   -2.6083    7.4994    0.0000 C   0  0
   -3.9099    8.2449    0.0000 C   0  0
   -5.2063    7.4904    0.0000 C   0  0
   -6.5087    8.2363    0.0000 C   0  0
   -7.8103    8.9818    0.0000 N   0  0
   -5.2011    5.9904    0.0000 C   0  0
   -3.8995    5.2449    0.0000 C   0  0
   -2.5981    3.0000    0.0000 N   0  0
   -2.5981    1.5000    0.0000 C   0  0
   -3.8994    0.7522    0.0000 N   0  0
   -5.1981    1.5045    0.0000 C   0  0
   -6.4998    0.7590    0.0000 C   0  0
   -6.5050   -0.7409    0.0000 Cl  0  0
   -7.7962    1.5135    0.0000 C   0  0
   -7.7910    3.0135    0.0000 C   0  0
   -9.0866    3.7711    0.0000 C   0  0
   -9.0793    5.2719    0.0000 C   0  0
  -10.3749    6.0295    0.0000 C   0  0
  -11.6698    6.7866    0.0000 N   0  0
   -6.4894    3.7590    0.0000 C   0  0
   -5.1930    3.0045    0.0000 C   0  0
   -3.8914    3.7501    0.0000 Cl  0  0
   -1.2990    0.7500    0.0000 C   0  0
   -1.2990   -0.7500    0.0000 C   0  0
    0.0000   -1.5000    0.0000 C   0  0
   -0.0031   -3.0008    0.0000 O   0  0
   -1.3032   -3.7490    0.0000 C   0  0
  1  2  1  0
  2  3  1  0
  3  4  2  0
  4  5  1  0
  5  6  2  0
  6  7  1  0
  7  8  1  0
  8  9  1  0
  9 10  2  0
 10 11  1  0
 11 12  2  0
 12 13  1  0
 13 14  3  0
 12 15  1  0
 15 16  2  0
 16  9  1  0
  7 17  2  0
 17 18  1  0
 18 19  1  0
 19 20  1  0
 20 21  2  0
 21 22  1  0
 21 23  1  0
 23 24  2  0
 24 25  1  0
 25 26  2  0
 26 27  1  0
 27 28  3  0
 24 29  1  0
 29 30  2  0
 30 20  1  0
 30 31  1  0
 18 32  2  0
 32  5  1  0
 32 33  1  0
 33 34  2  0
 34  3  1  0
 34 35  1  0
 35 36  1  0
M  END
> <Smiles>
COc1cc2nc(Nc3ccc(C#N)cc3)nc(Nc3c(Cl)cc(/C=C/C#N)cc3Cl)c2cc1OC

> <IC50_uM>
0.046

> <pIC50>
7.337242168

> <Activity>
1

$$$$

  SciTegic10102310092D

 31 34  0  0  0  0            999 V2000
    3.9054   -3.7444    0.0000 C   0  0
    5.2029   -2.9917    0.0000 C   0  0
    6.5032   -3.7395    0.0000 C   0  0
    5.2007   -1.4909    0.0000 C   0  0
    6.4972   -0.7364    0.0000 C   0  0
    7.7988   -1.4819    0.0000 O   0  0
    6.4920    0.7636    0.0000 N   0  0
    5.1903    1.5091    0.0000 C   0  0
    5.1821    3.0099    0.0000 S   0  0
    3.8787    3.7539    0.0000 C   0  0
    3.8704    5.2547    0.0000 C   0  0
    5.1655    6.0115    0.0000 O   0  0
    2.5670    5.9988    0.0000 C   0  0
    2.5565    7.4988    0.0000 C   0  0
    1.2523    8.2398    0.0000 C   0  0
   -0.0415    7.4808    0.0000 C   0  0
   -0.0311    5.9809    0.0000 C   0  0
    1.2731    5.2399    0.0000 C   0  0
    3.8939    0.7546    0.0000 N   0  0
    3.8990   -0.7455    0.0000 C   0  0
    2.6003   -1.4977    0.0000 C   0  0
    1.2990   -0.7500    0.0000 C   0  0
    1.2990    0.7500    0.0000 C   0  0
    0.0000    1.5000    0.0000 C   0  0
   -1.2990    0.7500    0.0000 C   0  0
   -1.2990   -0.7500    0.0000 C   0  0
   -2.5981   -1.5000    0.0000 C   0  0
   -2.5981   -3.0000    0.0000 C   0  0
   -1.2990   -3.7500    0.0000 C   0  0
    0.0000   -3.0000    0.0000 C   0  0
    0.0000   -1.5000    0.0000 C   0  0
  1  2  1  0
  2  3  1  0
  2  4  1  0
  4  5  2  0
  5  6  1  0
  5  7  1  0
  7  8  2  0
  8  9  1  0
  9 10  1  0
 10 11  1  0
 11 12  2  0
 11 13  1  0
 13 14  2  0
 14 15  1  0
 15 16  2  0
 16 17  1  0
 17 18  2  0
 18 13  1  0
  8 19  1  0
 19 20  2  0
 20  4  1  0
 20 21  1  0
 21 22  1  0
 22 23  2  0
 23 24  1  0
 24 25  2  0
 25 26  1  0
 26 27  2  0
 27 28  1  0
 28 29  2  0
 29 30  1  0
 30 31  2  0
 31 22  1  0
 31 26  1  0
M  END
> <Smiles>
CC(C)c1c(O)nc(SCC(=O)c2ccccc2)nc1Cc1cccc2ccccc12

> <IC50_uM>
0.046

> <pIC50>
7.337242168

> <Activity>
1

$$$$

  SciTegic10102310092D

 32 35  0  0  0  0            999 V2000
    6.4978   -2.2520    0.0000 O   0  0
    5.1983   -3.0012    0.0000 C   0  0
    5.1978   -4.5012    0.0000 O   0  0
    3.8985   -2.2508    0.0000 C   0  0
    2.5988   -1.5004    0.0000 C   0  0
    1.2990   -0.7500    0.0000 C   0  0
    1.2990    0.7500    0.0000 C   0  0
    0.0000    1.5000    0.0000 C   0  0
   -1.2990    0.7500    0.0000 C   0  0
   -2.5973    1.5031    0.0000 N   0  0
   -2.5951    3.0039    0.0000 C   0  0
   -1.2948    3.7516    0.0000 O   0  0
   -3.8933    3.7570    0.0000 C   0  0
   -3.8912    5.2578    0.0000 S   0  0
   -5.1894    6.0109    0.0000 C   0  0
   -6.5408    5.3898    0.0000 N   0  0
   -7.5445    6.5046    0.0000 N   0  0
   -6.7945    7.8036    0.0000 N   0  0
   -5.3273    7.4917    0.0000 N   0  0
   -4.2061    8.4893    0.0000 C   0  0
   -4.6302    9.9300    0.0000 C   0  0
   -3.5923   11.0129    0.0000 C   0  0
   -2.1355   10.6554    0.0000 C   0  0
   -1.0970   11.7388    0.0000 C   0  0
   -0.8006   13.1292    0.0000 C   0  0
    0.2807   12.0895    0.0000 C   0  0
   -1.7166    9.2151    0.0000 C   0  0
   -2.7546    8.1322    0.0000 C   0  0
   -2.3362    6.6917    0.0000 Cl  0  0
   -1.2990   -0.7500    0.0000 C   0  0
   -2.5981   -1.5000    0.0000 Cl  0  0
    0.0000   -1.5000    0.0000 C   0  0
  1  2  2  0
  2  3  1  0
  2  4  1  0
  4  5  3  0
  5  6  1  0
  6  7  2  0
  7  8  1  0
  8  9  2  0
  9 10  1  0
 10 11  1  0
 11 12  2  0
 11 13  1  0
 13 14  1  0
 14 15  1  0
 15 16  2  0
 16 17  1  0
 17 18  2  0
 18 19  1  0
 19 15  1  0
 19 20  1  0
 20 21  2  0
 21 22  1  0
 22 23  2  0
 23 24  1  0
 24 25  1  0
 25 26  1  0
 26 24  1  0
 23 27  1  0
 27 28  2  0
 28 20  1  0
 28 29  1  0
  9 30  1  0
 30 31  1  0
 30 32  2  0
 32  6  1  0
M  END
> <Smiles>
O=C(O)C#Cc1ccc(NC(=O)CSc2nnnn2-c2ccc(C3CC3)cc2Cl)c(Cl)c1

> <IC50_uM>
0.047

> <pIC50>
7.327902142

> <Activity>
1

$$$$

  SciTegic10102310092D

 33 37  0  0  0  0            999 V2000
    5.1578    2.9806    0.0000 C   0  0
    5.1684    1.4807    0.0000 N   0  0
    3.8737    0.7215    0.0000 C   0  0
    2.5684    1.4623    0.0000 C   0  0
    1.2734    0.7054    0.0000 C   0  0
   -0.0296    1.4484    0.0000 C   0  0
   -0.0376    2.9484    0.0000 C   0  0
   -1.1572    3.9454    0.0000 O   0  0
   -0.5544    5.3190    0.0000 C   0  0
    0.9382    5.1701    0.0000 C   0  0
    1.2574    3.7053    0.0000 C   0  0
    2.5604    2.9623    0.0000 C   0  0
    6.4736    0.7399    0.0000 C   0  0
    7.7687    1.4968    0.0000 N   0  0
    9.0717    0.7537    0.0000 C   0  0
   10.3667    1.5107    0.0000 O   0  0
    9.0798   -0.7462    0.0000 N   0  0
    7.7848   -1.5032    0.0000 C   0  0
    7.7897   -3.0040    0.0000 N   0  0
    9.0915   -3.7510    0.0000 C   0  0
   10.3901   -3.0002    0.0000 C   0  0
   10.3892   -1.5002    0.0000 F   0  0
   11.6896   -3.7494    0.0000 C   0  0
   11.6906   -5.2494    0.0000 C   0  0
   10.3920   -6.0002    0.0000 C   0  0
    9.0925   -5.2510    0.0000 C   0  0
    7.7933   -6.0023    0.0000 C   0  0
    6.4925   -5.2552    0.0000 C   0  0
    5.1951   -6.0081    0.0000 C   0  0
    5.1985   -7.5081    0.0000 C   0  0
    6.4992   -8.2552    0.0000 C   0  0
    7.7965   -7.5023    0.0000 C   0  0
    6.4817   -0.7602    0.0000 N   0  0
  1  2  1  0
  2  3  1  0
  3  4  1  0
  4  5  2  0
  5  6  1  0
  6  7  2  0
  7  8  1  0
  8  9  1  0
  9 10  2  0
 10 11  1  0
 11  7  1  0
 11 12  2  0
 12  4  1  0
  2 13  1  0
 13 14  2  0
 14 15  1  0
 15 16  1  0
 15 17  2  0
 17 18  1  0
 18 19  1  0
 19 20  1  0
 20 21  2  0
 21 22  1  0
 21 23  1  0
 23 24  2  0
 24 25  1  0
 25 26  2  0
 26 20  1  0
 26 27  1  0
 27 28  2  0
 28 29  1  0
 29 30  2  0
 30 31  1  0
 31 32  2  0
 32 27  1  0
 18 33  2  0
 33 13  1  0
M  END
> <Smiles>
CN(Cc1ccc2occc2c1)c1nc(O)nc(Nc2c(F)cccc2-c2ccccc2)n1

> <IC50_uM>
0.047

> <pIC50>
7.327902142

> <Activity>
1

$$$$

  SciTegic10102310092D

 26 28  0  0  0  0            999 V2000
    2.5981   -1.5000    0.0000 O   0  0
    1.2990   -0.7500    0.0000 C   0  0
    1.2990    0.7500    0.0000 C   0  0
    0.0000    1.5000    0.0000 C   0  0
   -0.0031    3.0008    0.0000 C   0  0
   -1.3039    3.7494    0.0000 C   0  0
   -1.3092    5.2494    0.0000 C   0  0
   -2.6108    5.9949    0.0000 C   0  0
   -3.9073    5.2404    0.0000 C   0  0
   -5.2096    5.9863    0.0000 C   0  0
   -5.2172    7.4863    0.0000 C   0  0
   -6.5200    8.2297    0.0000 C   0  0
   -7.8153    7.4732    0.0000 C   0  0
   -9.1188    8.2170    0.0000 C   0  0
   -9.1273    9.7170    0.0000 F   0  0
  -10.4138    7.4601    0.0000 F   0  0
  -10.4220    8.9598    0.0000 F   0  0
   -7.8077    5.9732    0.0000 C   0  0
   -6.5049    5.2298    0.0000 C   0  0
   -3.9021    3.7404    0.0000 C   0  0
   -2.6005    2.9949    0.0000 C   0  0
   -1.2990    0.7500    0.0000 N   0  0
   -1.2990   -0.7500    0.0000 C   0  0
   -2.5981   -1.5000    0.0000 O   0  0
    0.0000   -1.5000    0.0000 N   0  0
    0.0000   -3.0000    0.0000 O   0  0
  1  2  2  0
  2  3  1  0
  3  4  2  0
  4  5  1  0
  5  6  1  0
  6  7  2  0
  7  8  1  0
  8  9  2  0
  9 10  1  0
 10 11  2  0
 11 12  1  0
 12 13  2  0
 13 14  1  0
 14 15  1  0
 14 16  1  0
 14 17  1  0
 13 18  1  0
 18 19  2  0
 19 10  1  0
  9 20  1  0
 20 21  2  0
 21  6  1  0
  4 22  1  0
 22 23  1  0
 23 24  2  0
 23 25  1  0
 25  2  1  0
 25 26  1  0
M  END
> <Smiles>
O=c1cc(Cc2ccc(-c3ccc(C(F)(F)F)cc3)cc2)[nH]c(=O)n1O

> <IC50_uM>
0.047

> <pIC50>
7.327902142

> <Activity>
1

$$$$

  SciTegic10102310092D

 24 25  0  0  0  0            999 V2000
    3.8912   -5.2570    0.0000 C   0  0
    3.8933   -3.7570    0.0000 C   0  0
    2.5951   -3.0039    0.0000 C   0  0  3  0  0  0
    1.2948   -3.7516    0.0000 C   0  0
    2.5973   -1.5031    0.0000 S   0  0
    1.2990   -0.7500    0.0000 C   0  0
    1.2990    0.7500    0.0000 N   0  0
    0.0000    1.5000    0.0000 C   0  0
    0.0031    3.0008    0.0000 C   0  0  3  0  0  0
   -1.2938    3.7562    0.0000 C   0  0
   -1.2891    5.2562    0.0000 C   0  0
    1.3039    3.7494    0.0000 C   0  0
    1.3092    5.2494    0.0000 C   0  0
    0.0127    6.0039    0.0000 F   0  0
    2.6108    5.9949    0.0000 C   0  0
    3.9072    5.2405    0.0000 C   0  0
    3.9020    3.7405    0.0000 C   0  0
    2.6004    2.9949    0.0000 C   0  0
    2.5953    1.4950    0.0000 F   0  0
   -1.2990    0.7500    0.0000 C   0  0
   -2.5981    1.5000    0.0000 C   0  0
   -1.2990   -0.7500    0.0000 C   0  0
   -2.5981   -1.5000    0.0000 O   0  0
    0.0000   -1.5000    0.0000 N   0  0
  1  2  1  0
  2  3  1  0
  3  4  1  4
  3  5  1  0
  5  6  1  0
  6  7  2  0
  7  8  1  0
  8  9  1  0
  9 10  1  4
 10 11  1  0
  9 12  1  0
 12 13  2  0
 13 14  1  0
 13 15  1  0
 15 16  2  0
 16 17  1  0
 17 18  2  0
 18 12  1  0
 18 19  1  0
  8 20  2  0
 20 21  1  0
 20 22  1  0
 22 23  2  0
 22 24  1  0
 24  6  1  0
M  END
> <Smiles>
CCC(C)Sc1nc(C(CC)c2c(F)cccc2F)c(C)c(=O)[nH]1

> <IC50_uM>
0.048

> <pIC50>
7.318758763

> <Activity>
1

$$$$

  SciTegic10102310092D

 21 23  0  0  0  0            999 V2000
    1.8073   -5.7196    0.0000 N   0  0
    2.5551   -4.4192    0.0000 C   0  0
    4.0551   -4.4171    0.0000 O   0  0
    1.8032   -3.1233    0.0000 C   0  0
    2.4133   -1.7530    0.0000 N   0  0
    1.2990   -0.7500    0.0000 C   0  0
    1.2990    0.7500    0.0000 C   0  0
    0.0000    1.5000    0.0000 C   0  0
   -1.2990    0.7500    0.0000 C   0  0
   -2.5981    1.5000    0.0000 Cl  0  0
   -1.2990   -0.7500    0.0000 C   0  0
    0.0000   -1.5000    0.0000 C   0  0
    0.3114   -2.9665    0.0000 C   0  0
   -0.6913   -4.0797    0.0000 S   0  0
   -0.2276   -5.5062    0.0000 O   0  0
    0.7759   -4.3916    0.0000 O   0  0
   -2.1595   -3.7683    0.0000 N   0  0
   -3.2523   -4.7770    0.0000 C   0  0
   -4.5516   -4.0276    0.0000 C   0  0
   -4.2404   -2.5602    0.0000 C   0  0
   -2.7487   -2.4028    0.0000 C   0  0
  1  2  1  0
  2  3  2  0
  2  4  1  0
  4  5  1  0
  5  6  1  0
  6  7  2  0
  7  8  1  0
  8  9  2  0
  9 10  1  0
  9 11  1  0
 11 12  2  0
 12  6  1  0
 12 13  1  0
 13  4  2  0
 13 14  1  0
 14 15  2  0
 14 16  2  0
 14 17  1  0
 17 18  1  0
 18 19  1  0
 19 20  1  0
 20 21  1  0
 21 17  1  0
M  END
> <Smiles>
NC(=O)c1[nH]c2ccc(Cl)cc2c1S(=O)(=O)N1CCCC1

> <IC50_uM>
0.048

> <pIC50>
7.318758763

> <Activity>
1

$$$$

  SciTegic10102310092D

 33 35  0  0  0  0            999 V2000
    9.0964    0.7636    0.0000 C   0  0
    9.0990   -0.7364    0.0000 C   0  0
    7.8003   -1.4887    0.0000 C   0  0
    7.8015   -2.9895    0.0000 C   0  0
    6.5028   -3.7418    0.0000 C   0  0
    6.5040   -5.2426    0.0000 C   0  0
    7.8039   -5.9911    0.0000 O   0  0
    5.2053   -5.9949    0.0000 N   0  0
    5.2065   -7.4957    0.0000 C   0  0
    6.5077   -8.2420    0.0000 C   0  0
    6.5119   -9.7420    0.0000 C   0  0
    5.2150  -10.4957    0.0000 C   0  0
    5.2193  -11.9964    0.0000 C   0  0
    6.5193  -12.7449    0.0000 C   0  0
    6.5212  -14.2449    0.0000 C   0  0
    5.2231  -14.9965    0.0000 C   0  0
    5.2219  -16.4974    0.0000 C   0  0
    3.9220  -17.2476    0.0000 C   0  0
    3.9208  -18.7476    0.0000 O   0  0
    2.6234  -16.4969    0.0000 O   0  0
    3.9231  -14.2482    0.0000 C   0  0
    3.9212  -12.7482    0.0000 C   0  0
    3.9139   -9.7494    0.0000 C   0  0
    3.9096   -8.2494    0.0000 C   0  0
    2.6084   -7.5031    0.0000 Cl  0  0
   10.4003   -1.4841    0.0000 C   0  0
   10.4004   -2.9842    0.0000 C   0  0
   11.6994   -3.7342    0.0000 C   0  0
   12.9985   -2.9841    0.0000 C   0  0
   14.2975   -3.7341    0.0000 C   0  0
   12.9984   -1.4841    0.0000 C   0  0
   11.6994   -0.7342    0.0000 C   0  0
   11.6994    0.7658    0.0000 Cl  0  0
  1  2  1  0
  2  3  2  0
  3  4  1  0
  4  5  1  0
  5  6  1  0
  6  7  2  0
  6  8  1  0
  8  9  1  0
  9 10  2  0
 10 11  1  0
 11 12  2  0
 12 13  1  0
 13 14  2  0
 14 15  1  0
 15 16  2  0
 16 17  1  0
 17 18  1  0
 18 19  2  0
 18 20  1  0
 16 21  1  0
 21 22  2  0
 22 13  1  0
 12 23  1  0
 23 24  2  0
 24  9  1  0
 24 25  1  0
  2 26  1  0
 26 27  2  0
 27 28  1  0
 28 29  2  0
 29 30  1  0
 29 31  1  0
 31 32  2  0
 32 26  1  0
 32 33  1  0
M  END
> <Smiles>
C/C(=C/CCC(=O)Nc1ccc(-c2ccc(CC(=O)O)cc2)cc1Cl)c1ccc(C)cc1Cl

> <IC50_uM>
0.048

> <pIC50>
7.318758763

> <Activity>
1

$$$$

  SciTegic10102310092D

 28 32  0  0  0  0            999 V2000
   -2.1584   -3.7671    0.0000 O   0  0
   -0.6913   -4.0797    0.0000 S   0  0
   -1.1543   -2.6530    0.0000 O   0  0
    0.3114   -2.9665    0.0000 C   0  0
    1.8032   -3.1233    0.0000 C   0  0
    2.5536   -4.4230    0.0000 C   0  0
    2.0412   -5.8141    0.0000 N   0  0
    3.2305   -6.7268    0.0000 C   0  0
    3.3479   -8.2222    0.0000 C   0  0
    4.7016   -8.8683    0.0000 C   0  0
    5.9380   -8.0190    0.0000 C   0  0
    5.8206   -6.5236    0.0000 C   0  0
    7.0570   -5.6742    0.0000 O   0  0
    4.4669   -5.8775    0.0000 C   0  0
    4.0417   -4.4398    0.0000 N   0  0
    2.4133   -1.7530    0.0000 N   0  0
    1.2990   -0.7500    0.0000 C   0  0
    1.2990    0.7500    0.0000 C   0  0
    0.0000    1.5000    0.0000 C   0  0
   -1.2990    0.7500    0.0000 C   0  0
   -2.5981    1.5000    0.0000 Br  0  0
   -1.2990   -0.7500    0.0000 C   0  0
    0.0000   -1.5000    0.0000 C   0  0
   -0.2287   -5.5075    0.0000 N   0  0
   -1.1182   -6.6994    0.0000 C   0  0
   -0.2375   -7.9136    0.0000 C   0  0
    1.1895   -7.4513    0.0000 C   0  0
    1.1907   -5.9513    0.0000 C   0  0
  1  2  2  0
  2  3  2  0
  2  4  1  0
  4  5  2  0
  5  6  1  0
  6  7  2  0
  7  8  1  0
  8  9  2  0
  9 10  1  0
 10 11  2  0
 11 12  1  0
 12 13  1  0
 12 14  2  0
 14  8  1  0
 14 15  1  0
 15  6  1  0
  5 16  1  0
 16 17  1  0
 17 18  2  0
 18 19  1  0
 19 20  2  0
 20 21  1  0
 20 22  1  0
 22 23  2  0
 23  4  1  0
 23 17  1  0
  2 24  1  0
 24 25  1  0
 25 26  1  0
 26 27  1  0
 27 28  1  0
 28 24  1  0
M  END
> <Smiles>
O=S(=O)(c1c(-c2nc3cccc(O)c3[nH]2)[nH]c2ccc(Br)cc12)N1CCCC1

> <IC50_uM>
0.048

> <pIC50>
7.318758763

> <Activity>
1

$$$$

  SciTegic10102310092D

 24 26  0  0  0  0            999 V2000
    3.8978   -2.2504    0.0000 N   0  0
    2.5988   -1.5004    0.0000 C   0  0
    1.2990   -0.7500    0.0000 C   0  0
    1.2990    0.7500    0.0000 C   0  0
    0.0000    1.5000    0.0000 C   0  0
   -1.2990    0.7500    0.0000 C   0  0
   -2.6003    1.4977    0.0000 N   0  0
   -3.8990    0.7455    0.0000 C   0  0
   -5.2007    1.4909    0.0000 N   0  0
   -6.4972    0.7364    0.0000 C   0  0
   -6.4920   -0.7636    0.0000 C   0  0
   -5.1903   -1.5091    0.0000 C   0  0
   -5.1821   -3.0099    0.0000 N   0  0
   -3.8787   -3.7540    0.0000 C   0  0
   -3.8704   -5.2548    0.0000 C   0  0
   -2.5687   -6.0003    0.0000 C   0  0
   -2.5635   -7.5003    0.0000 C   0  0
   -3.8599   -8.2548    0.0000 C   0  0
   -3.8547   -9.7548    0.0000 Cl  0  0
   -5.1616   -7.5094    0.0000 C   0  0
   -5.1668   -6.0094    0.0000 C   0  0
   -3.8939   -0.7546    0.0000 N   0  0
   -1.2990   -0.7500    0.0000 C   0  0
    0.0000   -1.5000    0.0000 C   0  0
  1  2  3  0
  2  3  1  0
  3  4  2  0
  4  5  1  0
  5  6  2  0
  6  7  1  0
  7  8  1  0
  8  9  2  0
  9 10  1  0
 10 11  2  0
 11 12  1  0
 12 13  1  0
 13 14  1  0
 14 15  1  0
 15 16  2  0
 16 17  1  0
 17 18  2  0
 18 19  1  0
 18 20  1  0
 20 21  2  0
 21 15  1  0
 12 22  2  0
 22  8  1  0
  6 23  1  0
 23 24  2  0
 24  3  1  0
M  END
> <Smiles>
N#Cc1ccc(Nc2nccc(NCc3ccc(Cl)cc3)n2)cc1

> <IC50_uM>
0.048

> <pIC50>
7.318758763

> <Activity>
1

$$$$

  SciTegic10102310092D

 35 38  0  0  0  0            999 V2000
    2.5981   -1.5000    0.0000 C   0  0
    1.2990   -0.7500    0.0000 C   0  0
    1.2990    0.7500    0.0000 C   0  0
    0.0000    1.5000    0.0000 C   0  0
    0.0000    3.0008    0.0000 C   0  0
    0.0000    4.5008    0.0000 N   0  0
   -1.2990    0.7500    0.0000 C   0  0
   -1.2990   -0.7500    0.0000 C   0  0
   -2.5981   -1.5000    0.0000 C   0  0
    0.0000   -1.5000    0.0000 C   0  0
    0.0031   -3.0008    0.0000 O   0  0
    1.3039   -3.7494    0.0000 C   0  0
    1.3092   -5.2494    0.0000 C   0  0
    2.6108   -5.9949    0.0000 C   0  0
    3.9073   -5.2404    0.0000 N   0  0
    3.9021   -3.7404    0.0000 C   0  0
    5.1977   -2.9829    0.0000 N   0  0
    5.1903   -1.4820    0.0000 C   0  0
    6.4841   -0.7230    0.0000 C   0  0
    6.4738    0.7770    0.0000 C   0  0
    5.1696    1.5180    0.0000 N   0  0
    5.1561    3.0188    0.0000 C   0  0
    3.8501    3.7583    0.0000 C   0  0
    3.8345    5.2582    0.0000 C   0  0
    2.5277    5.9947    0.0000 C   0  0
    1.2365    5.2313    0.0000 C   0  0
   -0.0709    5.9682    0.0000 S   0  0
   -1.3619    5.2043    0.0000 C   0  0
   -0.0874    7.4681    0.0000 O   0  0
   -1.3780    6.7040    0.0000 O   0  0
    1.2521    3.7314    0.0000 C   0  0
    2.5588    2.9949    0.0000 C   0  0
    3.8757    0.7590    0.0000 C   0  0
    3.8861   -0.7410    0.0000 C   0  0
    2.6004   -2.9949    0.0000 N   0  0
  1  2  1  0
  2  3  2  0
  3  4  1  0
  4  5  1  0
  5  6  3  0
  4  7  2  0
  7  8  1  0
  8  9  1  0
  8 10  2  0
 10  2  1  0
 10 11  1  0
 11 12  1  0
 12 13  2  0
 13 14  1  0
 14 15  2  0
 15 16  1  0
 16 17  1  0
 17 18  1  0
 18 19  1  0
 19 20  1  0
 20 21  1  0
 21 22  1  0
 22 23  1  0
 23 24  2  0
 24 25  1  0
 25 26  2  0
 26 27  1  0
 27 28  1  0
 27 29  2  0
 27 30  2  0
 26 31  1  0
 31 32  2  0
 32 23  1  0
 21 33  1  0
 33 34  1  0
 34 18  1  0
 16 35  2  0
 35 12  1  0
M  END
> <Smiles>
Cc1cc(C#N)cc(C)c1Oc1ccnc(NC2CCN(Cc3ccc(S(C)(=O)=O)cc3)CC2)n1

> <IC50_uM>
0.05

> <pIC50>
7.301029996

> <Activity>
1

$$$$

  SciTegic10102310092D

 24 26  0  0  0  0            999 V2000
    2.5981   -1.5000    0.0000 C   0  0
    1.2990   -0.7500    0.0000 C   0  0
    1.2990    0.7500    0.0000 C   0  0
    0.0000    1.5000    0.0000 C   0  0
   -0.0031    3.0008    0.0000 C   0  0
   -1.3039    3.7494    0.0000 C   0  0
   -2.6005    2.9949    0.0000 C   0  0
   -3.9021    3.7404    0.0000 C   0  0
   -3.9073    5.2404    0.0000 C   0  0
   -5.2089    5.9859    0.0000 Cl  0  0
   -2.6108    5.9949    0.0000 C   0  0
   -2.6129    7.4957    0.0000 O   0  0
   -1.3147    8.2488    0.0000 C   0  0
   -1.3146    9.7488    0.0000 C   0  0
   -0.0156   10.4988    0.0000 C   0  0
    1.2834    9.7488    0.0000 C   0  0
    1.2834    8.2488    0.0000 C   0  0
   -0.0156    7.4988    0.0000 C   0  0
   -1.3092    5.2494    0.0000 C   0  0
   -0.0128    6.0039    0.0000 F   0  0
   -1.2990    0.7500    0.0000 N   0  0
   -1.2990   -0.7500    0.0000 N   0  0
    0.0000   -1.5000    0.0000 C   0  0
    0.0000   -3.0000    0.0000 O   0  0
  1  2  1  0
  2  3  2  0
  3  4  1  0
  4  5  1  0
  5  6  1  0
  6  7  2  0
  7  8  1  0
  8  9  2  0
  9 10  1  0
  9 11  1  0
 11 12  1  0
 12 13  1  0
 13 14  2  0
 14 15  1  0
 15 16  2  0
 16 17  1  0
 17 18  2  0
 18 13  1  0
 11 19  2  0
 19  6  1  0
 19 20  1  0
  4 21  2  0
 21 22  1  0
 22 23  1  0
 23  2  1  0
 23 24  2  0
M  END
> <Smiles>
Cc1cc(Cc2ccc(Cl)c(Oc3ccccc3)c2F)n[nH]c1=O

> <IC50_uM>
0.05

> <pIC50>
7.301029996

> <Activity>
1

$$$$

  SciTegic10102310092D

 23 25  0  0  0  0            999 V2000
   -1.2250   -6.6252    0.0000 C   0  0
   -0.2234   -5.5086    0.0000 C   0  0
   -0.6890   -4.0818    0.0000 C   0  0
    0.3114   -2.9665    0.0000 N   0  0
    1.8032   -3.1233    0.0000 C   0  0
    2.5532   -4.4223    0.0000 O   0  0
    2.4133   -1.7530    0.0000 N   0  0
    1.2990   -0.7500    0.0000 C   0  0
    1.2990    0.7500    0.0000 C   0  0
    0.0000    1.5000    0.0000 C   0  0
   -1.2990    0.7500    0.0000 C   0  0
   -1.2990   -0.7500    0.0000 C   0  0
   -2.6003   -1.4978    0.0000 O   0  0
   -3.8990   -0.7455    0.0000 C   0  0
   -5.2007   -1.4909    0.0000 C   0  0
   -6.4972   -0.7365    0.0000 C   0  0
   -7.7988   -1.4820    0.0000 Cl  0  0
   -6.4920    0.7635    0.0000 C   0  0
   -5.1903    1.5090    0.0000 C   0  0
   -5.1852    3.0099    0.0000 C   0  0
   -5.1800    4.5099    0.0000 N   0  0
   -3.8939    0.7546    0.0000 C   0  0
    0.0000   -1.5000    0.0000 C   0  0
  1  2  1  0
  2  3  1  0
  3  4  1  0
  4  5  1  0
  5  6  2  0
  5  7  1  0
  7  8  1  0
  8  9  2  0
  9 10  1  0
 10 11  2  0
 11 12  1  0
 12 13  1  0
 13 14  1  0
 14 15  2  0
 15 16  1  0
 16 17  1  0
 16 18  2  0
 18 19  1  0
 19 20  1  0
 20 21  3  0
 19 22  2  0
 22 14  1  0
 12 23  2  0
 23  8  1  0
 23  4  1  0
M  END
> <Smiles>
CCCn1c(=O)[nH]c2cccc(Oc3cc(Cl)cc(C#N)c3)c21

> <IC50_uM>
0.05

> <pIC50>
7.301029996

> <Activity>
1

$$$$

  SciTegic10102310092D

 28 30  0  0  0  0            999 V2000
    7.7970    0.0109    0.0000 C   0  0
    6.4990   -0.7409    0.0000 C   0  0
    5.2003   -1.4932    0.0000 C   0  0
    3.8990   -0.7455    0.0000 O   0  0
    2.6003   -1.4977    0.0000 C   0  0
    1.2990   -0.7500    0.0000 C   0  0
    1.2990    0.7500    0.0000 C   0  0
    0.0000    1.5000    0.0000 N   0  0
    0.0000    3.0008    0.0000 C   0  0  3  0  0  0
   -1.2149    3.8587    0.0000 C   0  0
   -0.7536    5.2860    0.0000 C   0  0
    0.7463    5.2884    0.0000 O   0  0
    1.2121    3.8625    0.0000 N   0  0
    2.6351    3.3939    0.0000 C   0  0
    2.9406    1.9253    0.0000 O   0  0
    3.7552    4.3929    0.0000 O   0  0
    5.1806    3.9234    0.0000 C   0  0
    6.3007    4.9224    0.0000 C   0  0
    7.7261    4.4552    0.0000 C   0  0
    8.8434    5.4559    0.0000 C   0  0
    8.5354    6.9239    0.0000 C   0  0
    7.1101    7.3912    0.0000 C   0  0
    5.9927    6.3905    0.0000 C   0  0
   -1.2990    0.7500    0.0000 C   0  0
   -2.5981    1.5000    0.0000 O   0  0
   -1.2990   -0.7500    0.0000 N   0  0
    0.0000   -1.5000    0.0000 C   0  0
    0.0000   -3.0000    0.0000 O   0  0
  1  2  3  0
  2  3  1  0
  3  4  1  0
  4  5  1  0
  5  6  1  0
  6  7  2  0
  7  8  1  0
  9  8  1  4
  9 10  1  0
 10 11  1  0
 11 12  1  0
 12 13  1  0
 13  9  1  0
 13 14  1  0
 14 15  2  0
 14 16  1  0
 16 17  1  0
 17 18  1  0
 18 19  2  0
 19 20  1  0
 20 21  2  0
 21 22  1  0
 22 23  2  0
 23 18  1  0
  8 24  1  0
 24 25  2  0
 24 26  1  0
 26 27  1  0
 27  6  1  0
 27 28  2  0
M  END
> <Smiles>
C#CCOCc1cn(C2CCON2C(=O)OCc2ccccc2)c(=O)[nH]c1=O

> <IC50_uM>
0.05

> <pIC50>
7.301029996

> <Activity>
1

$$$$

  SciTegic10102310092D

 25 27  0  0  0  0            999 V2000
   -0.2237   -5.5078    0.0000 C   0  0
   -0.6890   -4.0818    0.0000 C   0  0
    0.3114   -2.9665    0.0000 N   0  0
    1.8032   -3.1233    0.0000 C   0  0
    2.5532   -4.4223    0.0000 O   0  0
    2.4133   -1.7530    0.0000 N   0  0
    1.2990   -0.7500    0.0000 C   0  0
    1.2990    0.7500    0.0000 C   0  0
    0.0000    1.5000    0.0000 C   0  0
   -1.2990    0.7500    0.0000 C   0  0
   -1.2990   -0.7500    0.0000 C   0  0
   -2.6003   -1.4978    0.0000 O   0  0
   -3.8990   -0.7455    0.0000 C   0  0
   -5.2007   -1.4909    0.0000 C   0  0
   -6.4972   -0.7365    0.0000 C   0  0
   -7.7995   -1.4824    0.0000 C   0  0
   -9.1011   -2.2279    0.0000 N   0  0
   -6.4920    0.7635    0.0000 C   0  0
   -5.1903    1.5090    0.0000 C   0  0
   -5.1821    3.0099    0.0000 C   0  0
   -3.8787    3.7539    0.0000 C   0  0
   -3.8704    5.2547    0.0000 C   0  0
   -3.8621    6.7547    0.0000 N   0  0
   -3.8939    0.7546    0.0000 C   0  0
    0.0000   -1.5000    0.0000 C   0  0
  1  2  1  0
  2  3  1  0
  3  4  1  0
  4  5  2  0
  4  6  1  0
  6  7  1  0
  7  8  2  0
  8  9  1  0
  9 10  2  0
 10 11  1  0
 11 12  1  0
 12 13  1  0
 13 14  2  0
 14 15  1  0
 15 16  1  0
 16 17  3  0
 15 18  2  0
 18 19  1  0
 19 20  1  0
 20 21  2  0
 21 22  1  0
 22 23  3  0
 19 24  2  0
 24 13  1  0
 11 25  2  0
 25  7  1  0
 25  3  1  0
M  END
> <Smiles>
CCn1c(=O)[nH]c2cccc(Oc3cc(C#N)cc(/C=C/C#N)c3)c21

> <IC50_uM>
0.051

> <pIC50>
7.292429824

> <Activity>
1

$$$$

  SciTegic10102310092D

 33 37  0  0  0  0            999 V2000
    2.5923    1.5001    0.0000 C   0  0
    3.8939    0.7546    0.0000 C   0  0
    5.1903    1.5091    0.0000 C   0  0
    6.4920    0.7636    0.0000 C   0  0
    7.7891    1.5185    0.0000 C   0  0
    9.0856    2.2729    0.0000 N   0  0
    6.4972   -0.7364    0.0000 C   0  0
    5.2007   -1.4909    0.0000 C   0  0
    5.2059   -2.9909    0.0000 C   0  0
    3.8990   -0.7455    0.0000 C   0  0
    2.6003   -1.4977    0.0000 O   0  0
    1.2990   -0.7500    0.0000 C   0  0
    1.2990    0.7500    0.0000 N   0  0
    0.0000    1.5000    0.0000 C   0  0
   -0.0031    3.0008    0.0000 N   0  0
   -1.3039    3.7494    0.0000 C   0  0
   -1.3092    5.2494    0.0000 C   0  0
   -2.6108    5.9949    0.0000 C   0  0
   -3.9073    5.2404    0.0000 N   0  0
   -5.2112    5.9836    0.0000 C   0  0
   -6.5072    5.2269    0.0000 C   0  0
   -7.8629    5.8385    0.0000 C   0  0
   -8.8588    4.7169    0.0000 N   0  0
   -8.0998    3.4230    0.0000 C   0  0
   -6.6348    3.7451    0.0000 N   0  0
   -3.9021    3.7404    0.0000 C   0  0
   -2.6005    2.9949    0.0000 C   0  0
   -1.2990    0.7500    0.0000 N   0  0
   -1.2990   -0.7500    0.0000 C   0  0
   -2.4133   -1.7530    0.0000 C   0  0
   -1.8032   -3.1233    0.0000 C   0  0
   -0.3114   -2.9665    0.0000 S   0  0
    0.0000   -1.5000    0.0000 C   0  0
  1  2  1  0
  2  3  2  0
  3  4  1  0
  4  5  1  0
  5  6  3  0
  4  7  2  0
  7  8  1  0
  8  9  1  0
  8 10  2  0
 10  2  1  0
 10 11  1  0
 11 12  1  0
 12 13  2  0
 13 14  1  0
 14 15  1  0
 15 16  1  0
 16 17  1  0
 17 18  1  0
 18 19  1  0
 19 20  1  0
 20 21  1  0
 21 22  2  0
 22 23  1  0
 23 24  1  0
 24 25  2  0
 25 21  1  0
 19 26  1  0
 26 27  1  0
 27 16  1  0
 14 28  2  0
 28 29  1  0
 29 30  1  0
 30 31  2  0
 31 32  1  0
 32 33  1  0
 33 12  1  0
 33 29  2  0
M  END
> <Smiles>
Cc1cc(C#N)cc(C)c1Oc1nc(NC2CCN(Cc3c[nH]cn3)CC2)nc2ccsc12

> <IC50_uM>
0.052

> <pIC50>
7.283996656

> <Activity>
1

$$$$

  SciTegic10102310092D

 37 41  0  0  0  0            999 V2000
    2.5923    1.5001    0.0000 C   0  0
    3.8939    0.7546    0.0000 C   0  0
    5.1903    1.5091    0.0000 C   0  0
    6.4920    0.7636    0.0000 C   0  0
    7.7891    1.5185    0.0000 C   0  0
    9.0856    2.2729    0.0000 N   0  0
    6.4972   -0.7364    0.0000 C   0  0
    5.2007   -1.4909    0.0000 C   0  0
    5.2059   -2.9909    0.0000 C   0  0
    3.8990   -0.7455    0.0000 C   0  0
    2.6003   -1.4977    0.0000 O   0  0
    1.2990   -0.7500    0.0000 C   0  0
    1.2990    0.7500    0.0000 N   0  0
    0.0000    1.5000    0.0000 C   0  0
   -0.0031    3.0008    0.0000 N   0  0
   -1.3039    3.7494    0.0000 C   0  0
   -1.3092    5.2494    0.0000 C   0  0
   -2.6108    5.9949    0.0000 C   0  0
   -3.9073    5.2404    0.0000 N   0  0
   -5.2112    5.9836    0.0000 C   0  0
   -6.5072    5.2269    0.0000 C   0  0
   -7.8629    5.8385    0.0000 C   0  0
   -8.8588    4.7169    0.0000 N   0  0
  -10.3499    4.8631    0.0000 S   0  0
  -11.2228    3.6432    0.0000 C   0  0
  -10.9704    6.2288    0.0000 O   0  0
  -11.8428    5.0088    0.0000 O   0  0
   -8.0998    3.4230    0.0000 C   0  0
   -6.6348    3.7451    0.0000 N   0  0
   -3.9021    3.7404    0.0000 C   0  0
   -2.6005    2.9949    0.0000 C   0  0
   -1.2990    0.7500    0.0000 N   0  0
   -1.2990   -0.7500    0.0000 C   0  0
   -2.4133   -1.7530    0.0000 C   0  0
   -1.8032   -3.1233    0.0000 C   0  0
   -0.3114   -2.9665    0.0000 S   0  0
    0.0000   -1.5000    0.0000 C   0  0
  1  2  1  0
  2  3  2  0
  3  4  1  0
  4  5  1  0
  5  6  3  0
  4  7  2  0
  7  8  1  0
  8  9  1  0
  8 10  2  0
 10  2  1  0
 10 11  1  0
 11 12  1  0
 12 13  2  0
 13 14  1  0
 14 15  1  0
 15 16  1  0
 16 17  1  0
 17 18  1  0
 18 19  1  0
 19 20  1  0
 20 21  1  0
 21 22  2  0
 22 23  1  0
 23 24  1  0
 24 25  1  0
 24 26  2  0
 24 27  2  0
 23 28  1  0
 28 29  2  0
 29 21  1  0
 19 30  1  0
 30 31  1  0
 31 16  1  0
 14 32  2  0
 32 33  1  0
 33 34  1  0
 34 35  2  0
 35 36  1  0
 36 37  1  0
 37 12  1  0
 37 33  2  0
M  END
> <Smiles>
Cc1cc(C#N)cc(C)c1Oc1nc(NC2CCN(Cc3cn(S(C)(=O)=O)cn3)CC2)nc2ccsc12

> <IC50_uM>
0.053

> <pIC50>
7.27572413

> <Activity>
1

$$$$

  SciTegic10102310092D

 33 35  0  0  0  0            999 V2000
    2.5981   -1.5000    0.0000 C   0  0
    1.2990   -0.7500    0.0000 C   0  0
    1.2990    0.7500    0.0000 C   0  0
    0.0000    1.5000    0.0000 C   0  0
    0.0000    3.0008    0.0000 C   0  0
    0.0000    4.5008    0.0000 N   0  0
   -1.2990    0.7500    0.0000 C   0  0
   -1.2990   -0.7500    0.0000 C   0  0
   -2.5981   -1.5000    0.0000 C   0  0
    0.0000   -1.5000    0.0000 C   0  0
    0.0031   -3.0008    0.0000 O   0  0
    1.3039   -3.7494    0.0000 C   0  0
    1.3092   -5.2494    0.0000 C   0  0
    2.6108   -5.9949    0.0000 C   0  0
    3.9073   -5.2404    0.0000 N   0  0
    3.9021   -3.7404    0.0000 C   0  0
    5.1992   -2.9855    0.0000 S   0  0
    5.1936   -1.4855    0.0000 O   0  0
    6.4953   -2.2304    0.0000 O   0  0
    6.5020   -3.7306    0.0000 C   0  0
    7.7992   -2.9757    0.0000 C   0  0
    7.7935   -1.4757    0.0000 O   0  0
    9.1020   -3.7208    0.0000 N   0  0
   10.3991   -2.9659    0.0000 C   0  0
   11.7024   -3.7087    0.0000 C   0  0
   12.9972   -2.9515    0.0000 C   0  0
   12.9890   -1.4516    0.0000 C   0  0
   14.2831   -0.6914    0.0000 N   0  3
   14.2727    0.8086    0.0000 O   0  0
   15.5875   -1.4319    0.0000 O   0  5
   11.6859   -0.7087    0.0000 C   0  0
   10.3910   -1.4658    0.0000 C   0  0
    2.6004   -2.9949    0.0000 N   0  0
  1  2  1  0
  2  3  2  0
  3  4  1  0
  4  5  1  0
  5  6  3  0
  4  7  2  0
  7  8  1  0
  8  9  1  0
  8 10  2  0
 10  2  1  0
 10 11  1  0
 11 12  1  0
 12 13  2  0
 13 14  1  0
 14 15  2  0
 15 16  1  0
 16 17  1  0
 17 18  2  0
 17 19  2  0
 17 20  1  0
 20 21  1  0
 21 22  2  0
 21 23  1  0
 23 24  1  0
 24 25  2  0
 25 26  1  0
 26 27  2  0
 27 28  1  0
 28 29  2  0
 28 30  1  0
 27 31  1  0
 31 32  2  0
 32 24  1  0
 16 33  2  0
 33 12  1  0
M  CHG  2  28   1  30  -1
M  END
> <Smiles>
Cc1cc(C#N)cc(C)c1Oc1ccnc(S(=O)(=O)CC(=O)Nc2ccc([N+](=O)[O-])cc2)n1

> <IC50_uM>
0.053

> <pIC50>
7.27572413

> <Activity>
1

$$$$

  SciTegic10102310092D

 21 23  0  0  0  0            999 V2000
   -0.6923   -4.0811    0.0000 C   0  0
    0.3114   -2.9665    0.0000 N   0  0
    1.8032   -3.1233    0.0000 C   0  0
    2.5532   -4.4223    0.0000 O   0  0
    2.4133   -1.7530    0.0000 N   0  0
    1.2990   -0.7500    0.0000 C   0  0
    1.2990    0.7500    0.0000 C   0  0
    0.0000    1.5000    0.0000 C   0  0
   -1.2990    0.7500    0.0000 C   0  0
   -1.2990   -0.7500    0.0000 C   0  0
   -2.6003   -1.4978    0.0000 O   0  0
   -3.8990   -0.7455    0.0000 C   0  0
   -5.2007   -1.4909    0.0000 C   0  0
   -6.4972   -0.7365    0.0000 C   0  0
   -7.7988   -1.4820    0.0000 Cl  0  0
   -6.4920    0.7635    0.0000 C   0  0
   -5.1903    1.5090    0.0000 C   0  0
   -5.1852    3.0099    0.0000 C   0  0
   -5.1800    4.5099    0.0000 N   0  0
   -3.8939    0.7546    0.0000 C   0  0
    0.0000   -1.5000    0.0000 C   0  0
  1  2  1  0
  2  3  1  0
  3  4  2  0
  3  5  1  0
  5  6  1  0
  6  7  2  0
  7  8  1  0
  8  9  2  0
  9 10  1  0
 10 11  1  0
 11 12  1  0
 12 13  2  0
 13 14  1  0
 14 15  1  0
 14 16  2  0
 16 17  1  0
 17 18  1  0
 18 19  3  0
 17 20  2  0
 20 12  1  0
 10 21  2  0
 21  6  1  0
 21  2  1  0
M  END
> <Smiles>
Cn1c(=O)[nH]c2cccc(Oc3cc(Cl)cc(C#N)c3)c21

> <IC50_uM>
0.055

> <pIC50>
7.259637311

> <Activity>
1

$$$$

  SciTegic10102310092D

 35 39  0  0  0  0            999 V2000
    2.5923    1.5001    0.0000 C   0  0
    3.8939    0.7546    0.0000 C   0  0
    5.1903    1.5091    0.0000 C   0  0
    6.4920    0.7636    0.0000 C   0  0
    7.7891    1.5185    0.0000 C   0  0
    9.0856    2.2729    0.0000 N   0  0
    6.4972   -0.7364    0.0000 C   0  0
    5.2007   -1.4909    0.0000 C   0  0
    5.2059   -2.9909    0.0000 C   0  0
    3.8990   -0.7455    0.0000 C   0  0
    2.6003   -1.4977    0.0000 O   0  0
    1.2990   -0.7500    0.0000 C   0  0
    1.2990    0.7500    0.0000 N   0  0
    0.0000    1.5000    0.0000 C   0  0
   -0.0031    3.0008    0.0000 N   0  0
   -1.3039    3.7494    0.0000 C   0  0
   -1.3092    5.2494    0.0000 C   0  0
   -2.6108    5.9949    0.0000 C   0  0
   -3.9073    5.2404    0.0000 N   0  0
   -5.2112    5.9836    0.0000 C   0  0
   -6.5072    5.2269    0.0000 C   0  0
   -6.6348    3.7451    0.0000 N   0  0
   -8.0998    3.4230    0.0000 N   0  0
   -8.8588    4.7169    0.0000 C   0  0
  -10.3517    4.8633    0.0000 O   0  0
   -7.8629    5.8385    0.0000 N   0  0
   -8.1762    7.3054    0.0000 C   0  0
   -3.9021    3.7404    0.0000 C   0  0
   -2.6005    2.9949    0.0000 C   0  0
   -1.2990    0.7500    0.0000 N   0  0
   -1.2990   -0.7500    0.0000 C   0  0
   -2.4133   -1.7530    0.0000 C   0  0
   -1.8032   -3.1233    0.0000 C   0  0
   -0.3114   -2.9665    0.0000 S   0  0
    0.0000   -1.5000    0.0000 C   0  0
  1  2  1  0
  2  3  2  0
  3  4  1  0
  4  5  1  0
  5  6  3  0
  4  7  2  0
  7  8  1  0
  8  9  1  0
  8 10  2  0
 10  2  1  0
 10 11  1  0
 11 12  1  0
 12 13  2  0
 13 14  1  0
 14 15  1  0
 15 16  1  0
 16 17  1  0
 17 18  1  0
 18 19  1  0
 19 20  1  0
 20 21  1  0
 21 22  2  0
 22 23  1  0
 23 24  1  0
 24 25  2  0
 24 26  1  0
 26 21  1  0
 26 27  1  0
 19 28  1  0
 28 29  1  0
 29 16  1  0
 14 30  2  0
 30 31  1  0
 31 32  1  0
 32 33  2  0
 33 34  1  0
 34 35  1  0
 35 12  1  0
 35 31  2  0
M  END
> <Smiles>
Cc1cc(C#N)cc(C)c1Oc1nc(NC2CCN(Cc3n[nH]c(=O)n3C)CC2)nc2ccsc12

> <IC50_uM>
0.055

> <pIC50>
7.259637311

> <Activity>
1

$$$$

  SciTegic10102310092D

 25 27  0  0  0  0            999 V2000
    3.8978   -2.2504    0.0000 N   0  0
    2.5988   -1.5004    0.0000 C   0  0
    1.2990   -0.7500    0.0000 C   0  0
    1.2990    0.7500    0.0000 C   0  0
    0.0000    1.5000    0.0000 C   0  0
   -1.2990    0.7500    0.0000 C   0  0
   -2.6003    1.4977    0.0000 N   0  0
   -3.8990    0.7455    0.0000 C   0  0
   -5.2007    1.4909    0.0000 N   0  0
   -6.4972    0.7364    0.0000 C   0  0
   -6.4920   -0.7636    0.0000 C   0  0
   -5.1903   -1.5091    0.0000 C   0  0
   -5.1821   -3.0099    0.0000 N   0  0
   -3.8787   -3.7540    0.0000 C   0  0
   -3.8704   -5.2548    0.0000 C   0  0
   -5.1668   -6.0094    0.0000 C   0  0
   -5.1616   -7.5094    0.0000 C   0  0
   -3.8599   -8.2548    0.0000 C   0  0
   -3.8547   -9.7548    0.0000 F   0  0
   -2.5635   -7.5003    0.0000 C   0  0
   -2.5687   -6.0003    0.0000 C   0  0
   -1.2723   -5.2458    0.0000 F   0  0
   -3.8939   -0.7546    0.0000 N   0  0
   -1.2990   -0.7500    0.0000 C   0  0
    0.0000   -1.5000    0.0000 C   0  0
  1  2  3  0
  2  3  1  0
  3  4  2  0
  4  5  1  0
  5  6  2  0
  6  7  1  0
  7  8  1  0
  8  9  2  0
  9 10  1  0
 10 11  2  0
 11 12  1  0
 12 13  1  0
 13 14  1  0
 14 15  1  0
 15 16  2  0
 16 17  1  0
 17 18  2  0
 18 19  1  0
 18 20  1  0
 20 21  2  0
 21 15  1  0
 21 22  1  0
 12 23  2  0
 23  8  1  0
  6 24  1  0
 24 25  2  0
 25  3  1  0
M  END
> <Smiles>
N#Cc1ccc(Nc2nccc(NCc3ccc(F)cc3F)n2)cc1

> <IC50_uM>
0.056

> <pIC50>
7.251811973

> <Activity>
1

$$$$

  SciTegic10102310092D

 35 38  0  0  0  0            999 V2000
    3.8983   -0.7459    0.0000 C   0  0
    2.6003   -1.4977    0.0000 O   0  0
    1.2990   -0.7500    0.0000 C   0  0
    1.2990    0.7500    0.0000 C   0  0
    0.0000    1.5000    0.0000 C   0  0
    0.0000    3.0008    0.0000 C   0  0
    0.0000    4.5008    0.0000 N   0  0
   -1.2990    0.7500    0.0000 C   0  0
   -1.2990   -0.7500    0.0000 C   0  0
   -2.5981   -1.5000    0.0000 C   0  0
    0.0000   -1.5000    0.0000 C   0  0
    0.0031   -3.0008    0.0000 O   0  0
    1.3039   -3.7494    0.0000 C   0  0
    2.6005   -2.9949    0.0000 N   0  0
    3.9021   -3.7404    0.0000 C   0  0
    5.2008   -2.9882    0.0000 N   0  0
    6.5021   -3.7360    0.0000 C   0  0
    7.8012   -2.9860    0.0000 C   0  0
    9.1002   -3.7360    0.0000 C   0  0
    9.1002   -5.2360    0.0000 N   0  0
   10.3999   -5.9864    0.0000 C   0  0
   11.7002   -5.2385    0.0000 C   0  0
   12.9981   -5.9906    0.0000 C   0  0
   12.9957   -7.4906    0.0000 C   0  0
   11.6954   -8.2385    0.0000 C   0  0
   11.6900   -9.7394    0.0000 C   0  0
   12.9865  -10.4937    0.0000 N   0  0
   10.3887  -10.4854    0.0000 O   0  0
   10.3976   -7.4865    0.0000 C   0  0
    7.8012   -5.9860    0.0000 C   0  0
    6.5021   -5.2360    0.0000 C   0  0
    3.9073   -5.2404    0.0000 N   0  0
    2.6108   -5.9949    0.0000 C   0  0
    1.3092   -5.2494    0.0000 C   0  0
    0.0128   -6.0039    0.0000 Br  0  0
  1  2  1  0
  2  3  1  0
  3  4  2  0
  4  5  1  0
  5  6  1  0
  6  7  3  0
  5  8  2  0
  8  9  1  0
  9 10  1  0
  9 11  2  0
 11  3  1  0
 11 12  1  0
 12 13  1  0
 13 14  2  0
 14 15  1  0
 15 16  1  0
 16 17  1  0
 17 18  1  0
 18 19  1  0
 19 20  1  0
 20 21  1  0
 21 22  2  0
 22 23  1  0
 23 24  2  0
 24 25  1  0
 25 26  1  0
 26 27  1  0
 26 28  2  0
 25 29  2  0
 29 21  1  0
 20 30  1  0
 30 31  1  0
 31 17  1  0
 15 32  2  0
 32 33  1  0
 33 34  2  0
 34 13  1  0
 34 35  1  0
M  END
> <Smiles>
COc1cc(C#N)cc(C)c1Oc1nc(NC2CCN(c3cccc(C(N)=O)c3)CC2)ncc1Br

> <IC50_uM>
0.056

> <pIC50>
7.251811973

> <Activity>
1

$$$$

  SciTegic10102310092D

 36 39  0  0  0  0            999 V2000
    2.5981   -1.5000    0.0000 C   0  0
    1.2990   -0.7500    0.0000 C   0  0
    1.2990    0.7500    0.0000 C   0  0
    0.0000    1.5000    0.0000 C   0  0
    0.0000    3.0008    0.0000 C   0  0
    0.0000    4.5008    0.0000 N   0  0
   -1.2990    0.7500    0.0000 C   0  0
   -1.2990   -0.7500    0.0000 C   0  0
   -2.5981   -1.5000    0.0000 C   0  0
    0.0000   -1.5000    0.0000 C   0  0
    0.0031   -3.0008    0.0000 O   0  0
    1.3039   -3.7494    0.0000 C   0  0
    1.3092   -5.2494    0.0000 C   0  0
    2.6108   -5.9949    0.0000 C   0  0
    2.6160   -7.4949    0.0000 Cl  0  0
    3.9073   -5.2404    0.0000 N   0  0
    3.9021   -3.7404    0.0000 C   0  0
    5.1977   -2.9829    0.0000 N   0  0
    5.1903   -1.4820    0.0000 C   0  0
    6.4841   -0.7230    0.0000 C   0  0
    6.4738    0.7770    0.0000 C   0  0
    5.1696    1.5180    0.0000 N   0  0
    5.1561    3.0188    0.0000 C   0  0
    3.8501    3.7583    0.0000 C   0  0
    3.8345    5.2582    0.0000 C   0  0
    2.5277    5.9947    0.0000 C   0  0
    1.2365    5.2313    0.0000 C   0  0
   -0.0709    5.9682    0.0000 S   0  0
   -1.3619    5.2043    0.0000 N   0  0
   -0.0874    7.4681    0.0000 O   0  0
   -1.3780    6.7040    0.0000 O   0  0
    1.2521    3.7314    0.0000 C   0  0
    2.5588    2.9949    0.0000 C   0  0
    3.8757    0.7590    0.0000 C   0  0
    3.8861   -0.7410    0.0000 C   0  0
    2.6004   -2.9949    0.0000 C   0  0
  1  2  1  0
  2  3  2  0
  3  4  1  0
  4  5  1  0
  5  6  3  0
  4  7  2  0
  7  8  1  0
  8  9  1  0
  8 10  2  0
 10  2  1  0
 10 11  1  0
 11 12  1  0
 12 13  2  0
 13 14  1  0
 14 15  1  0
 14 16  2  0
 16 17  1  0
 17 18  1  0
 18 19  1  0
 19 20  1  0
 20 21  1  0
 21 22  1  0
 22 23  1  0
 23 24  1  0
 24 25  2  0
 25 26  1  0
 26 27  2  0
 27 28  1  0
 28 29  1  0
 28 30  2  0
 28 31  2  0
 27 32  1  0
 32 33  2  0
 33 24  1  0
 22 34  1  0
 34 35  1  0
 35 19  1  0
 17 36  2  0
 36 12  1  0
M  END
> <Smiles>
Cc1cc(C#N)cc(C)c1Oc1cc(Cl)nc(NC2CCN(Cc3ccc(S(N)(=O)=O)cc3)CC2)c1

> <IC50_uM>
0.057

> <pIC50>
7.244125144

> <Activity>
1

$$$$

  SciTegic10102310092D

 23 24  0  0  0  0            999 V2000
    3.9075   -3.7444    0.0000 C   0  0
    2.6060   -2.9986    0.0000 O   0  0
    2.6003   -1.4977    0.0000 C   0  0  3  0  0  0
    1.2990   -0.7500    0.0000 C   0  0
    1.2990    0.7500    0.0000 N   0  0
    0.0000    1.5000    0.0000 C   0  0
   -0.0031    3.0008    0.0000 S   0  0
   -1.3039    3.7494    0.0000 C   0  0
   -1.3070    5.2494    0.0000 C   0  0
   -2.6017    2.9971    0.0000 C   0  0
   -1.2990    0.7500    0.0000 N   0  0
   -1.2990   -0.7500    0.0000 C   0  0
   -2.5981   -1.5000    0.0000 O   0  0
    0.0000   -1.5000    0.0000 C   0  0
    0.0000   -3.0000    0.0000 C   0  0
    3.8990   -0.7455    0.0000 C   0  0
    5.2007   -1.4909    0.0000 C   0  0
    5.2060   -2.9909    0.0000 Cl  0  0
    6.4972   -0.7364    0.0000 C   0  0
    6.4920    0.7636    0.0000 C   0  0
    5.1903    1.5091    0.0000 C   0  0
    3.8939    0.7546    0.0000 C   0  0
    2.5923    1.5001    0.0000 Cl  0  0
  1  2  1  0
  3  2  1  4
  3  4  1  0
  4  5  1  0
  5  6  2  0
  6  7  1  0
  7  8  1  0
  8  9  1  0
  8 10  1  0
  6 11  1  0
 11 12  1  0
 12 13  2  0
 12 14  1  0
 14  4  2  0
 14 15  1  0
  3 16  1  0
 16 17  2  0
 17 18  1  0
 17 19  1  0
 19 20  2  0
 20 21  1  0
 21 22  2  0
 22 16  1  0
 22 23  1  0
M  END
> <Smiles>
COC(c1nc(SC(C)C)[nH]c(=O)c1C)c1c(Cl)cccc1Cl

> <IC50_uM>
0.059

> <pIC50>
7.229147988

> <Activity>
1

$$$$

  SciTegic10102310092D

 20 23  0  0  0  0            999 V2000
    2.1188    3.5608    0.0000 C   0  0
    2.4522    2.0983    0.0000 C   0  0
    3.8856    1.6562    0.0000 C   0  0
    4.2194    0.1938    0.0000 C   0  0
    3.1198   -0.8265    0.0000 N   0  0
    1.6852   -0.3846    0.0000 C   0  0
    1.3514    1.0778    0.0000 C   0  0
    0.0000    1.7286    0.0000 N   0  0
   -1.3515    1.0777    0.0000 C   0  0
   -2.5242    2.0130    0.0000 O   0  0
   -1.6852   -0.3847    0.0000 C   0  0
   -3.1695   -0.6090    0.0000 C   0  0
   -3.7175   -2.0053    0.0000 C   0  0
   -2.7822   -3.1781    0.0000 C   0  0
   -1.2990   -2.9545    0.0000 N   0  0
   -0.7500   -1.5574    0.0000 C   0  0
    0.7500   -1.5574    0.0000 N   0  0
    1.4012   -2.9095    0.0000 C   0  0
    1.1632   -4.3144    0.0000 C   0  0
    2.5519   -3.7471    0.0000 C   0  0
  1  2  1  0
  2  3  2  0
  3  4  1  0
  4  5  2  0
  5  6  1  0
  6  7  2  0
  7  2  1  0
  7  8  1  0
  8  9  1  0
  9 10  2  0
  9 11  1  0
 11 12  2  0
 12 13  1  0
 13 14  2  0
 14 15  1  0
 15 16  2  0
 16 11  1  0
 16 17  1  0
 17  6  1  0
 17 18  1  0
 18 19  1  0
 19 20  1  0
 20 18  1  0
M  END
> <Smiles>
Cc1ccnc2c1NC(=O)c1cccnc1N2C1CC1

> <IC50_uM>
0.06

> <pIC50>
7.22184875

> <Activity>
1

$$$$

  SciTegic10102310092D

 33 36  0  0  0  0            999 V2000
    3.1676   -7.5606    0.0000 C   0  0
    1.7006   -7.2475    0.0000 C   0  0
    0.6960   -8.3614    0.0000 C   0  0
   -0.7710   -8.0483    0.0000 C   0  0
   -1.7756   -9.1622    0.0000 C   0  0
   -1.2333   -6.6213    0.0000 C   0  0
   -0.2287   -5.5075    0.0000 C   0  0
   -0.6913   -4.0797    0.0000 S   0  0
   -2.1584   -3.7671    0.0000 O   0  0
   -1.6957   -5.1937    0.0000 O   0  0
    0.3114   -2.9665    0.0000 C   0  0
    1.8032   -3.1233    0.0000 C   0  0
    2.5551   -4.4192    0.0000 C   0  0
    1.8074   -5.7196    0.0000 O   0  0
    4.0559   -4.4171    0.0000 N   0  0
    4.8090   -5.7153    0.0000 C   0  0
    6.3098   -5.7131    0.0000 C   0  0
    7.0629   -7.0113    0.0000 C   0  0
    8.5630   -7.0113    0.0000 C   0  0
    9.3130   -8.3103    0.0000 C   0  0
    8.5631   -9.6094    0.0000 C   0  0
    9.3131  -10.9084    0.0000 Cl  0  0
    7.0631   -9.6094    0.0000 C   0  0
    6.3130   -8.3104    0.0000 C   0  0
    2.4133   -1.7530    0.0000 N   0  0
    1.2990   -0.7500    0.0000 C   0  0
    1.2990    0.7500    0.0000 C   0  0
    0.0000    1.5000    0.0000 C   0  0
   -1.2990    0.7500    0.0000 C   0  0
   -2.5981    1.5000    0.0000 Cl  0  0
   -1.2990   -0.7500    0.0000 C   0  0
    0.0000   -1.5000    0.0000 C   0  0
    1.2383   -5.8206    0.0000 C   0  0
  1  2  1  0
  2  3  2  0
  3  4  1  0
  4  5  1  0
  4  6  2  0
  6  7  1  0
  7  8  1  0
  8  9  2  0
  8 10  2  0
  8 11  1  0
 11 12  2  0
 12 13  1  0
 13 14  2  0
 13 15  1  0
 15 16  1  0
 16 17  1  0
 17 18  1  0
 18 19  2  0
 19 20  1  0
 20 21  2  0
 21 22  1  0
 21 23  1  0
 23 24  2  0
 24 18  1  0
 12 25  1  0
 25 26  1  0
 26 27  2  0
 27 28  1  0
 28 29  2  0
 29 30  1  0
 29 31  1  0
 31 32  2  0
 32 11  1  0
 32 26  1  0
  7 33  2  0
 33  2  1  0
M  END
> <Smiles>
Cc1cc(C)cc(S(=O)(=O)c2c(C(=O)NCCc3ccc(Cl)cc3)[nH]c3ccc(Cl)cc23)c1

> <IC50_uM>
0.06

> <pIC50>
7.22184875

> <Activity>
1

$$$$

  SciTegic10102310092D

 39 41  0  0  1  0            999 V2000
    4.8141   -1.7844    0.0000 C   0  0
    3.3403   -2.0633    0.0000 C   0  0
    2.3618   -0.9264    0.0000 C   0  0
    0.8871   -1.2105    0.0000 N   0  0
    0.0000    0.0000    0.0000 C   0  0  2  0  0  0
   -1.4986    0.0000    0.0000 O   0  0
   -1.9682    1.4103    0.0000 C   0  0  2  0  0  0
   -3.3980    1.8586    0.0000 C   0  0
   -4.5036    0.8435    0.0000 O   0  0
   -5.9356    1.2925    0.0000 Si  0  0
   -6.2622    2.7565    0.0000 C   0  0
   -4.8312    2.3075    0.0000 C   0  0
   -7.0412    0.2774    0.0000 C   0  0
   -8.4725    0.7262    0.0000 C   0  0
   -6.7146   -1.1866    0.0000 C   0  0
   -8.1456   -0.7376    0.0000 C   0  0
   -0.7739    2.2951    0.0000 C   0  0  2  0  0  0
   -1.9962    3.1701    0.0000 O   0  0
   -1.5432    4.6046    0.0000 S   0  0
   -0.9247    5.9712    0.0000 O   0  0
   -3.0308    4.4124    0.0000 O   0  0
   -0.0400    4.6189    0.0000 C   0  0
    0.8301    5.8408    0.0000 I   0  0
    0.4394    3.1898    0.0000 C   0  0
    1.8698    2.7381    0.0000 N   0  0
    0.4530    1.4345    0.0000 C   0  0  1  0  0  0
    1.8706    1.9191    0.0000 O   0  0
    3.0017    0.9327    0.0000 Si  0  0
    2.7127   -0.5392    0.0000 C   0  0
    2.0556    0.6088    0.0000 C   0  0
    4.4218    1.4182    0.0000 C   0  0
    5.5524    0.4323    0.0000 C   0  0
    4.7108    2.8901    0.0000 C   0  0
    5.8410    1.9041    0.0000 C   0  0
    0.3926   -2.6211    0.0000 C   0  0
   -1.0813   -2.8996    0.0000 O   0  0
    1.3710   -3.7581    0.0000 N   0  0
    2.8449   -3.4792    0.0000 C   0  0
    3.8233   -4.6161    0.0000 O   0  0
  1  2  1  0
  2  3  2  0
  3  4  1  0
  5  4  1  6
  5  6  1  0
  6  7  1  0
  7  8  1  6
  8  9  1  0
  9 10  1  0
 10 11  1  0
 10 12  1  0
 10 13  1  0
 13 14  1  0
 13 15  1  0
 13 16  1  0
  7 17  1  0
 17 18  1  1
 18 19  1  0
 19 20  2  0
 19 21  2  0
 19 22  1  0
 22 23  1  0
 22 24  2  0
 24 17  1  0
 24 25  1  0
 17 26  1  0
 26  5  1  0
 26 27  1  1
 27 28  1  0
 28 29  1  0
 28 30  1  0
 28 31  1  0
 31 32  1  0
 31 33  1  0
 31 34  1  0
  4 35  1  0
 35 36  2  0
 35 37  1  0
 37 38  1  0
 38  2  1  0
 38 39  2  0
M  END
> <Smiles>
Cc1cn([C@@H]2O[C@H](CO[Si](C)(C)C(C)(C)C)[C@@]3(OS(=O)(=O)C(I)=C3N)[C@H]2O[Si](C)(C)C(C)(C)C)c(=O)[nH]c1=O

> <IC50_uM>
0.06

> <pIC50>
7.22184875

> <Activity>
1

$$$$

  SciTegic10102310092D

 39 41  0  0  1  0            999 V2000
    4.8141   -1.7844    0.0000 C   0  0
    3.3403   -2.0633    0.0000 C   0  0
    2.3618   -0.9264    0.0000 C   0  0
    0.8871   -1.2105    0.0000 N   0  0
    0.0000    0.0000    0.0000 C   0  0  2  0  0  0
   -1.4986    0.0000    0.0000 O   0  0
   -1.9682    1.4103    0.0000 C   0  0  2  0  0  0
   -3.3980    1.8586    0.0000 C   0  0
   -4.5036    0.8435    0.0000 O   0  0
   -5.9356    1.2925    0.0000 Si  0  0
   -6.2622    2.7565    0.0000 C   0  0
   -4.8312    2.3075    0.0000 C   0  0
   -7.0412    0.2774    0.0000 C   0  0
   -8.4725    0.7262    0.0000 C   0  0
   -6.7146   -1.1866    0.0000 C   0  0
   -8.1456   -0.7376    0.0000 C   0  0
   -0.7739    2.2951    0.0000 C   0  0  2  0  0  0
   -1.9962    3.1701    0.0000 O   0  0
   -1.5432    4.6046    0.0000 S   0  0
   -0.9247    5.9712    0.0000 O   0  0
   -3.0308    4.4124    0.0000 O   0  0
   -0.0400    4.6189    0.0000 C   0  0
    0.4394    3.1898    0.0000 C   0  0
    1.8698    2.7381    0.0000 N   0  0
    0.4530    1.4345    0.0000 C   0  0  1  0  0  0
    1.8706    1.9191    0.0000 O   0  0
    3.0017    0.9327    0.0000 Si  0  0
    2.7127   -0.5392    0.0000 C   0  0
    2.0556    0.6088    0.0000 C   0  0
    4.4218    1.4182    0.0000 C   0  0
    5.5524    0.4323    0.0000 C   0  0
    4.7108    2.8901    0.0000 C   0  0
    5.8410    1.9041    0.0000 C   0  0
    0.3926   -2.6211    0.0000 C   0  0
   -1.0813   -2.8996    0.0000 O   0  0
    1.3710   -3.7581    0.0000 N   0  0
    0.8757   -5.1739    0.0000 C   0  0
    2.8449   -3.4792    0.0000 C   0  0
    3.8233   -4.6161    0.0000 O   0  0
  1  2  1  0
  2  3  2  0
  3  4  1  0
  5  4  1  6
  5  6  1  0
  6  7  1  0
  7  8  1  6
  8  9  1  0
  9 10  1  0
 10 11  1  0
 10 12  1  0
 10 13  1  0
 13 14  1  0
 13 15  1  0
 13 16  1  0
  7 17  1  0
 17 18  1  1
 18 19  1  0
 19 20  2  0
 19 21  2  0
 19 22  1  0
 22 23  2  0
 23 17  1  0
 23 24  1  0
 17 25  1  0
 25  5  1  0
 25 26  1  1
 26 27  1  0
 27 28  1  0
 27 29  1  0
 27 30  1  0
 30 31  1  0
 30 32  1  0
 30 33  1  0
  4 34  1  0
 34 35  2  0
 34 36  1  0
 36 37  1  0
 36 38  1  0
 38  2  1  0
 38 39  2  0
M  END
> <Smiles>
Cc1cn([C@@H]2O[C@H](CO[Si](C)(C)C(C)(C)C)[C@@]3(OS(=O)(=O)C=C3N)[C@H]2O[Si](C)(C)C(C)(C)C)c(=O)n(C)c1=O

> <IC50_uM>
0.06

> <pIC50>
7.22184875

> <Activity>
1

$$$$

  SciTegic10102310092D

 32 35  0  0  0  0            999 V2000
    2.5981   -1.5000    0.0000 C   0  0
    1.2990   -0.7500    0.0000 C   0  0
    1.2990    0.7500    0.0000 C   0  0
    2.5972    1.5031    0.0000 O   0  0
    2.5951    3.0039    0.0000 C   0  0
    1.2934    3.7495    0.0000 C   0  0
    1.2883    5.2495    0.0000 C   0  0
    2.5847    6.0040    0.0000 C   0  0
    3.8863    5.2585    0.0000 C   0  0
    3.8915    3.7585    0.0000 C   0  0
    5.1954    3.0153    0.0000 O   0  0
    6.4915    3.7721    0.0000 C   0  0
    7.7954    3.0289    0.0000 C   0  0
    9.0914    3.7857    0.0000 N   0  0
    9.0810    5.2858    0.0000 C   0  0
   10.3748    6.0448    0.0000 C   0  0
   11.6791    5.3038    0.0000 C   0  0
   12.9729    6.0629    0.0000 O   0  0
   11.6895    3.8039    0.0000 N   0  0
   10.3957    3.0449    0.0000 C   0  0
   10.4062    1.5449    0.0000 O   0  0
    0.0000    1.5000    0.0000 C   0  0
   -1.2990    0.7500    0.0000 C   0  0
   -2.5981    1.5000    0.0000 F   0  0
   -1.2990   -0.7500    0.0000 C   0  0
   -2.5981   -1.5000    0.0000 C   0  0
   -2.5981   -3.0000    0.0000 C   0  0
   -1.2990   -3.7500    0.0000 C   0  0
   -1.2990   -5.2508    0.0000 C   0  0
   -1.2990   -6.7508    0.0000 N   0  0
    0.0000   -3.0000    0.0000 C   0  0
    0.0000   -1.5000    0.0000 C   0  0
  1  2  1  0
  2  3  2  0
  3  4  1  0
  4  5  1  0
  5  6  2  0
  6  7  1  0
  7  8  2  0
  8  9  1  0
  9 10  2  0
 10  5  1  0
 10 11  1  0
 11 12  1  0
 12 13  1  0
 13 14  1  0
 14 15  1  0
 15 16  2  0
 16 17  1  0
 17 18  2  0
 17 19  1  0
 19 20  1  0
 20 14  1  0
 20 21  2  0
  3 22  1  0
 22 23  2  0
 23 24  1  0
 23 25  1  0
 25 26  2  0
 26 27  1  0
 27 28  2  0
 28 29  1  0
 29 30  3  0
 28 31  1  0
 31 32  2  0
 32  2  1  0
 32 25  1  0
M  END
> <Smiles>
Cc1c(Oc2ccccc2OCCn2ccc(=O)[nH]c2=O)cc(F)c2ccc(C#N)cc12

> <IC50_uM>
0.06

> <pIC50>
7.22184875

> <Activity>
1

$$$$

  SciTegic10102310092D

 38 40  0  0  1  0            999 V2000
    4.8141   -1.7844    0.0000 C   0  0
    3.3403   -2.0633    0.0000 C   0  0
    2.3618   -0.9264    0.0000 C   0  0
    0.8871   -1.2105    0.0000 N   0  0
    0.0000    0.0000    0.0000 C   0  0  2  0  0  0
   -1.4986    0.0000    0.0000 O   0  0
   -1.9682    1.4103    0.0000 C   0  0  2  0  0  0
   -3.3980    1.8586    0.0000 C   0  0
   -4.5036    0.8435    0.0000 O   0  0
   -5.9356    1.2925    0.0000 Si  0  0
   -6.2622    2.7565    0.0000 C   0  0
   -4.8312    2.3075    0.0000 C   0  0
   -7.0412    0.2774    0.0000 C   0  0
   -8.4725    0.7262    0.0000 C   0  0
   -6.7146   -1.1866    0.0000 C   0  0
   -8.1456   -0.7376    0.0000 C   0  0
   -0.7739    2.2951    0.0000 C   0  0  3  0  0  0
   -1.9962    3.1701    0.0000 O   0  0
   -1.5432    4.6046    0.0000 S   0  0
   -0.9247    5.9712    0.0000 O   0  0
   -3.0308    4.4124    0.0000 O   0  0
   -0.0400    4.6189    0.0000 C   0  0
    0.4394    3.1898    0.0000 C   0  0
    1.8698    2.7381    0.0000 N   0  0
    0.4530    1.4345    0.0000 C   0  0  1  0  0  0
    1.8706    1.9191    0.0000 O   0  0
    3.0017    0.9327    0.0000 Si  0  0
    2.7127   -0.5392    0.0000 C   0  0
    2.0556    0.6088    0.0000 C   0  0
    4.4218    1.4182    0.0000 C   0  0
    5.5524    0.4323    0.0000 C   0  0
    4.7108    2.8901    0.0000 C   0  0
    5.8410    1.9041    0.0000 C   0  0
    0.3926   -2.6211    0.0000 C   0  0
   -1.0813   -2.8996    0.0000 O   0  0
    1.3710   -3.7581    0.0000 N   0  0
    2.8449   -3.4792    0.0000 C   0  0
    3.8233   -4.6161    0.0000 O   0  0
  1  2  1  0
  2  3  2  0
  3  4  1  0
  5  4  1  6
  5  6  1  0
  6  7  1  0
  7  8  1  6
  8  9  1  0
  9 10  1  0
 10 11  1  0
 10 12  1  0
 10 13  1  0
 13 14  1  0
 13 15  1  0
 13 16  1  0
  7 17  1  0
 17 18  1  4
 18 19  1  0
 19 20  2  0
 19 21  2  0
 19 22  1  0
 22 23  2  0
 23 17  1  0
 23 24  1  0
 17 25  1  0
 25  5  1  0
 25 26  1  1
 26 27  1  0
 27 28  1  0
 27 29  1  0
 27 30  1  0
 30 31  1  0
 30 32  1  0
 30 33  1  0
  4 34  1  0
 34 35  2  0
 34 36  1  0
 36 37  1  0
 37  2  1  0
 37 38  2  0
M  END
> <Smiles>
Cc1cn([C@@H]2O[C@H](CO[Si](C)(C)C(C)(C)C)C3(OS(=O)(=O)C=C3N)[C@H]2O[Si](C)(C)C(C)(C)C)c(=O)[nH]c1=O

> <IC50_uM>
0.06

> <pIC50>
7.22184875

> <Activity>
1

$$$$

  SciTegic10102310092D

 34 37  0  0  0  0            999 V2000
    3.1676   -7.5606    0.0000 C   0  0
    1.7006   -7.2475    0.0000 C   0  0
    0.6960   -8.3614    0.0000 C   0  0
   -0.7710   -8.0483    0.0000 C   0  0
   -1.7756   -9.1622    0.0000 C   0  0
   -1.2333   -6.6213    0.0000 C   0  0
   -0.2287   -5.5075    0.0000 C   0  0
   -0.6913   -4.0797    0.0000 S   0  0
   -2.1584   -3.7671    0.0000 O   0  0
   -1.6957   -5.1937    0.0000 O   0  0
    0.3114   -2.9665    0.0000 C   0  0
    1.8032   -3.1233    0.0000 C   0  0
    2.5551   -4.4192    0.0000 C   0  0
    1.8074   -5.7196    0.0000 O   0  0
    4.0559   -4.4171    0.0000 N   0  0
    4.8090   -5.7153    0.0000 C   0  0
    6.3098   -5.7131    0.0000 C   0  0
    7.0629   -7.0113    0.0000 C   0  0
    8.5630   -7.0113    0.0000 C   0  0
    9.3130   -8.3103    0.0000 C   0  0
    8.5631   -9.6094    0.0000 C   0  0
    7.0631   -9.6094    0.0000 C   0  0
    6.3130   -8.3104    0.0000 C   0  0
    2.4133   -1.7530    0.0000 N   0  0
    1.2990   -0.7500    0.0000 C   0  0
    1.2990    0.7500    0.0000 C   0  0
    0.0000    1.5000    0.0000 C   0  0
   -1.2990    0.7500    0.0000 C   0  0
   -2.6003    1.4977    0.0000 N   0  3
   -3.8983    0.7459    0.0000 O   0  0
   -2.6030    2.9977    0.0000 O   0  5
   -1.2990   -0.7500    0.0000 C   0  0
    0.0000   -1.5000    0.0000 C   0  0
    1.2383   -5.8206    0.0000 C   0  0
  1  2  1  0
  2  3  2  0
  3  4  1  0
  4  5  1  0
  4  6  2  0
  6  7  1  0
  7  8  1  0
  8  9  2  0
  8 10  2  0
  8 11  1  0
 11 12  2  0
 12 13  1  0
 13 14  2  0
 13 15  1  0
 15 16  1  0
 16 17  1  0
 17 18  1  0
 18 19  2  0
 19 20  1  0
 20 21  2  0
 21 22  1  0
 22 23  2  0
 23 18  1  0
 12 24  1  0
 24 25  1  0
 25 26  2  0
 26 27  1  0
 27 28  2  0
 28 29  1  0
 29 30  2  0
 29 31  1  0
 28 32  1  0
 32 33  2  0
 33 11  1  0
 33 25  1  0
  7 34  2  0
 34  2  1  0
M  CHG  2  29   1  31  -1
M  END
> <Smiles>
Cc1cc(C)cc(S(=O)(=O)c2c(C(=O)NCCc3ccccc3)[nH]c3ccc([N+](=O)[O-])cc23)c1

> <IC50_uM>
0.06

> <pIC50>
7.22184875

> <Activity>
1

$$$$

  SciTegic10102310092D

 29 31  0  0  0  0            999 V2000
    2.5981   -1.5000    0.0000 C   0  0
    1.2990   -0.7500    0.0000 C   0  0
    1.2990    0.7500    0.0000 C   0  0
    0.0000    1.5000    0.0000 C   0  0
   -1.2990    0.7500    0.0000 C   0  0
   -1.2990   -0.7500    0.0000 C   0  0
    0.0000   -1.5000    0.0000 C   0  0
    0.0000   -3.0000    0.0000 N   0  0
    1.2982   -3.7531    0.0000 C   0  0
    2.5986   -3.0053    0.0000 O   0  0
    1.2961   -5.2539    0.0000 S   0  0
    2.5943   -6.0070    0.0000 C   0  0
    2.5922   -7.5078    0.0000 C   0  0
    1.2918   -8.2556    0.0000 O   0  0
    3.8904   -8.2609    0.0000 N   0  0
    3.8882   -9.7617    0.0000 C   0  0
    2.5866  -10.5073    0.0000 C   0  0
    2.5814  -12.0073    0.0000 C   0  0
    3.8779  -12.7618    0.0000 C   0  0
    3.8727  -14.2626    0.0000 S   0  0
    5.1694  -15.0167    0.0000 N   0  0
    2.5715  -15.0090    0.0000 O   0  0
    3.8682  -15.7626    0.0000 O   0  0
    5.1795  -12.0163    0.0000 C   0  0
    5.1847  -10.5163    0.0000 C   0  0
    6.4863   -9.7708    0.0000 Cl  0  0
   -1.2990   -3.7500    0.0000 C   0  0
   -2.5981   -3.0000    0.0000 C   0  0
   -2.5981   -1.5000    0.0000 C   0  0
  1  2  1  0
  2  3  2  0
  3  4  1  0
  4  5  2  0
  5  6  1  0
  6  7  2  0
  7  2  1  0
  7  8  1  0
  8  9  1  0
  9 10  2  0
  9 11  1  0
 11 12  1  0
 12 13  1  0
 13 14  2  0
 13 15  1  0
 15 16  1  0
 16 17  2  0
 17 18  1  0
 18 19  2  0
 19 20  1  0
 20 21  1  0
 20 22  2  0
 20 23  2  0
 19 24  1  0
 24 25  2  0
 25 16  1  0
 25 26  1  0
  8 27  1  0
 27 28  1  0
 28 29  1  0
 29  6  1  0
M  END
> <Smiles>
Cc1cccc2c1N(C(=O)SCC(=O)Nc1ccc(S(N)(=O)=O)cc1Cl)CCC2

> <IC50_uM>
0.061

> <pIC50>
7.214670165

> <Activity>
1

$$$$

  SciTegic10102310092D

 32 35  0  0  0  0            999 V2000
    2.5981   -1.5000    0.0000 C   0  0
    1.2990   -0.7500    0.0000 C   0  0
    1.2990    0.7500    0.0000 C   0  0
    0.0000    1.5000    0.0000 C   0  0
    0.0031    3.0008    0.0000 O   0  0
    1.3039    3.7494    0.0000 C   0  0
    2.6004    2.9949    0.0000 C   0  0
    3.9020    3.7405    0.0000 C   0  0
    3.9072    5.2405    0.0000 C   0  0
    2.6108    5.9949    0.0000 C   0  0
    1.3092    5.2494    0.0000 C   0  0
    0.0136    6.0070    0.0000 O   0  0
    0.0209    7.5078    0.0000 C   0  0
   -1.2746    8.2654    0.0000 C   0  0
   -1.2673    9.7662    0.0000 N   0  0
    0.0370   10.5073    0.0000 C   0  0
    0.0474   12.0073    0.0000 C   0  0
   -1.2464   12.7663    0.0000 C   0  0
   -1.2360   14.2662    0.0000 O   0  0
   -2.5506   12.0253    0.0000 N   0  0
   -2.5610   10.5253    0.0000 C   0  0
   -3.8653    9.7844    0.0000 O   0  0
   -1.2990    0.7500    0.0000 C   0  0
   -2.5981    1.5000    0.0000 C   0  0
   -1.2990   -0.7500    0.0000 C   0  0
   -2.5981   -1.5000    0.0000 C   0  0
   -2.5981   -3.0000    0.0000 C   0  0
   -3.8978   -3.7504    0.0000 C   0  0
   -5.1968   -4.5004    0.0000 N   0  0
   -1.2990   -3.7500    0.0000 C   0  0
    0.0000   -3.0000    0.0000 C   0  0
    0.0000   -1.5000    0.0000 C   0  0
  1  2  1  0
  2  3  2  0
  3  4  1  0
  4  5  1  0
  5  6  1  0
  6  7  2  0
  7  8  1  0
  8  9  2  0
  9 10  1  0
 10 11  2  0
 11  6  1  0
 11 12  1  0
 12 13  1  0
 13 14  1  0
 14 15  1  0
 15 16  1  0
 16 17  2  0
 17 18  1  0
 18 19  2  0
 18 20  1  0
 20 21  1  0
 21 15  1  0
 21 22  2  0
  4 23  2  0
 23 24  1  0
 23 25  1  0
 25 26  2  0
 26 27  1  0
 27 28  1  0
 28 29  3  0
 27 30  2  0
 30 31  1  0
 31 32  2  0
 32  2  1  0
 32 25  1  0
M  END
> <Smiles>
Cc1cc(Oc2ccccc2OCCn2ccc(=O)[nH]c2=O)c(C)c2cc(C#N)ccc12

> <IC50_uM>
0.062

> <pIC50>
7.207608311

> <Activity>
1

$$$$

  SciTegic10102310092D

 34 37  0  0  0  0            999 V2000
    2.5981   -1.5000    0.0000 C   0  0
    1.2990   -0.7500    0.0000 C   0  0
    1.2990    0.7500    0.0000 C   0  0
    0.0000    1.5000    0.0000 C   0  0
    0.0000    3.0008    0.0000 C   0  0
    0.0000    4.5008    0.0000 N   0  0
   -1.2990    0.7500    0.0000 C   0  0
   -1.2990   -0.7500    0.0000 C   0  0
   -2.5981   -1.5000    0.0000 C   0  0
    0.0000   -1.5000    0.0000 C   0  0
    0.0031   -3.0008    0.0000 O   0  0
    1.3039   -3.7494    0.0000 C   0  0
    2.6005   -2.9949    0.0000 N   0  0
    3.9021   -3.7404    0.0000 C   0  0
    5.2008   -2.9882    0.0000 N   0  0
    6.5021   -3.7360    0.0000 C   0  0
    7.8012   -2.9860    0.0000 C   0  0
    9.1002   -3.7360    0.0000 C   0  0
    9.1002   -5.2360    0.0000 N   0  0
   10.3984   -5.9891    0.0000 C   0  0
   10.3963   -7.4900    0.0000 C   0  0
    9.0946   -8.2356    0.0000 C   0  0
    9.0894   -9.7355    0.0000 C   0  0
   10.3859  -10.4900    0.0000 C   0  0
   11.6875   -9.7445    0.0000 C   0  0
   11.6927   -8.2445    0.0000 C   0  0
   12.9951   -7.4987    0.0000 C   0  0
   14.2967   -6.7532    0.0000 N   0  0
    7.8012   -5.9860    0.0000 C   0  0
    6.5021   -5.2360    0.0000 C   0  0
    3.9073   -5.2404    0.0000 N   0  0
    2.6108   -5.9949    0.0000 C   0  0
    1.3092   -5.2494    0.0000 C   0  0
    0.0128   -6.0039    0.0000 Br  0  0
  1  2  1  0
  2  3  2  0
  3  4  1  0
  4  5  1  0
  5  6  3  0
  4  7  2  0
  7  8  1  0
  8  9  1  0
  8 10  2  0
 10  2  1  0
 10 11  1  0
 11 12  1  0
 12 13  2  0
 13 14  1  0
 14 15  1  0
 15 16  1  0
 16 17  1  0
 17 18  1  0
 18 19  1  0
 19 20  1  0
 20 21  1  0
 21 22  2  0
 22 23  1  0
 23 24  2  0
 24 25  1  0
 25 26  2  0
 26 21  1  0
 26 27  1  0
 27 28  3  0
 19 29  1  0
 29 30  1  0
 30 16  1  0
 14 31  2  0
 31 32  1  0
 32 33  2  0
 33 12  1  0
 33 34  1  0
M  END
> <Smiles>
Cc1cc(C#N)cc(C)c1Oc1nc(NC2CCN(Cc3ccccc3C#N)CC2)ncc1Br

> <IC50_uM>
0.062

> <pIC50>
7.207608311

> <Activity>
1

$$$$

  SciTegic10102310092D

 27 30  0  0  0  0            999 V2000
    0.8898  -10.2543    0.0000 C   0  0
    1.1659   -8.7799    0.0000 C   0  0
    2.5812   -8.2806    0.0000 C   0  0  3  0  0  0
    3.7204   -9.2565    0.0000 O   0  0
    2.8570   -6.8080    0.0000 C   0  0
    4.2107   -6.1619    0.0000 C   0  0
    4.0146   -4.6747    0.0000 N   0  0
    2.5536   -4.4230    0.0000 C   0  0
    1.8032   -3.1233    0.0000 C   0  0
    2.4133   -1.7530    0.0000 N   0  0
    1.2990   -0.7500    0.0000 C   0  0
    1.2990    0.7500    0.0000 C   0  0
    0.0000    1.5000    0.0000 C   0  0
   -1.2990    0.7500    0.0000 C   0  0
   -2.5981    1.5000    0.0000 Br  0  0
   -1.2990   -0.7500    0.0000 C   0  0
    0.0000   -1.5000    0.0000 C   0  0
    0.3114   -2.9665    0.0000 C   0  0
   -0.6913   -4.0797    0.0000 S   0  0
   -0.2276   -5.5062    0.0000 O   0  0
    0.7759   -4.3916    0.0000 O   0  0
   -2.1595   -3.7683    0.0000 N   0  0
   -3.2523   -4.7770    0.0000 C   0  0
   -4.5516   -4.0276    0.0000 C   0  0
   -4.2404   -2.5602    0.0000 C   0  0
   -2.7487   -2.4028    0.0000 C   0  0
    1.8242   -5.7201    0.0000 N   0  0
  1  2  1  0
  2  3  1  0
  3  4  1  4
  3  5  1  0
  5  6  2  0
  6  7  1  0
  7  8  2  0
  8  9  1  0
  9 10  1  0
 10 11  1  0
 11 12  2  0
 12 13  1  0
 13 14  2  0
 14 15  1  0
 14 16  1  0
 16 17  2  0
 17 11  1  0
 17 18  1  0
 18  9  2  0
 18 19  1  0
 19 20  2  0
 19 21  2  0
 19 22  1  0
 22 23  1  0
 23 24  1  0
 24 25  1  0
 25 26  1  0
 26 22  1  0
  8 27  1  0
 27  5  1  0
M  END
> <Smiles>
CCC(O)c1cnc(-c2[nH]c3ccc(Br)cc3c2S(=O)(=O)N2CCCC2)[nH]1

> <IC50_uM>
0.062

> <pIC50>
7.207608311

> <Activity>
1

$$$$

  SciTegic10102310092D

 23 25  0  0  0  0            999 V2000
   -0.2237   -5.5078    0.0000 C   0  0
   -0.6890   -4.0818    0.0000 C   0  0
    0.3114   -2.9665    0.0000 N   0  0
    1.8032   -3.1233    0.0000 C   0  0
    2.5532   -4.4223    0.0000 O   0  0
    2.4133   -1.7530    0.0000 N   0  0
    1.2990   -0.7500    0.0000 C   0  0
    1.2990    0.7500    0.0000 C   0  0
    0.0000    1.5000    0.0000 C   0  0
   -1.2990    0.7500    0.0000 C   0  0
   -1.2990   -0.7500    0.0000 C   0  0
   -2.6003   -1.4978    0.0000 O   0  0
   -3.8990   -0.7455    0.0000 C   0  0
   -5.2007   -1.4909    0.0000 C   0  0
   -6.4972   -0.7365    0.0000 C   0  0
   -7.7995   -1.4824    0.0000 C   0  0
   -9.1011   -2.2279    0.0000 N   0  0
   -6.4920    0.7635    0.0000 C   0  0
   -5.1903    1.5090    0.0000 C   0  0
   -5.1852    3.0099    0.0000 C   0  0
   -5.1800    4.5099    0.0000 N   0  0
   -3.8939    0.7546    0.0000 C   0  0
    0.0000   -1.5000    0.0000 C   0  0
  1  2  1  0
  2  3  1  0
  3  4  1  0
  4  5  2  0
  4  6  1  0
  6  7  1  0
  7  8  2  0
  8  9  1  0
  9 10  2  0
 10 11  1  0
 11 12  1  0
 12 13  1  0
 13 14  2  0
 14 15  1  0
 15 16  1  0
 16 17  3  0
 15 18  2  0
 18 19  1  0
 19 20  1  0
 20 21  3  0
 19 22  2  0
 22 13  1  0
 11 23  2  0
 23  7  1  0
 23  3  1  0
M  END
> <Smiles>
CCn1c(=O)[nH]c2cccc(Oc3cc(C#N)cc(C#N)c3)c21

> <IC50_uM>
0.063

> <pIC50>
7.200659451

> <Activity>
1

$$$$

  SciTegic10102310092D

 32 36  0  0  0  0            999 V2000
    5.2029   -2.9932    0.0000 O   0  0
    5.2003   -1.4932    0.0000 C   0  0
    3.8990   -0.7455    0.0000 N   0  0
    2.6003   -1.4977    0.0000 C   0  0
    1.2990   -0.7500    0.0000 C   0  0
    1.2990    0.7500    0.0000 C   0  0
    0.0000    1.5000    0.0000 C   0  0
   -1.2990    0.7500    0.0000 N   0  0
   -1.2990   -0.7500    0.0000 C   0  0
   -2.5981   -1.5000    0.0000 C   0  0
   -2.5981   -3.0000    0.0000 C   0  0
   -1.2990   -3.7500    0.0000 C   0  0
    0.0000   -3.0000    0.0000 C   0  0
    0.0000   -1.5000    0.0000 C   0  0
    6.4990   -0.7409    0.0000 C   0  0
    6.6317    0.7404    0.0000 N   0  0
    8.0971    1.0569    0.0000 C   0  0
    8.8426    2.3586    0.0000 C   0  0
   10.3426    2.3638    0.0000 C   0  0
   11.0971    1.0674    0.0000 C   0  0
   12.5971    1.0726    0.0000 Br  0  0
   10.3516   -0.2343    0.0000 C   0  0
    8.8516   -0.2395    0.0000 C   0  0
    7.8525   -1.3573    0.0000 C   0  0
    8.1582   -2.8239    0.0000 S   0  0
    7.0391   -3.8228    0.0000 O   0  0
    6.7335   -2.3544    0.0000 O   0  0
    9.5834   -3.2944    0.0000 N   0  0
   10.0194   -4.7162    0.0000 C   0  0
   11.5194   -4.7232    0.0000 C   0  0
   11.9895   -3.2988    0.0000 C   0  0
   10.7801   -2.4115    0.0000 C   0  0
  1  2  2  0
  2  3  1  0
  3  4  1  0
  4  5  1  0
  5  6  2  0
  6  7  1  0
  7  8  2  0
  8  9  1  0
  9 10  2  0
 10 11  1  0
 11 12  2  0
 12 13  1  0
 13 14  2  0
 14  5  1  0
 14  9  1  0
  2 15  1  0
 15 16  1  0
 16 17  1  0
 17 18  2  0
 18 19  1  0
 19 20  2  0
 20 21  1  0
 20 22  1  0
 22 23  2  0
 23 17  1  0
 23 24  1  0
 24 15  2  0
 24 25  1  0
 25 26  2  0
 25 27  2  0
 25 28  1  0
 28 29  1  0
 29 30  1  0
 30 31  1  0
 31 32  1  0
 32 28  1  0
M  END
> <Smiles>
O=C(NCc1ccnc2ccccc12)c1[nH]c2ccc(Br)cc2c1S(=O)(=O)N1CCCC1

> <IC50_uM>
0.063

> <pIC50>
7.200659451

> <Activity>
1

$$$$

  SciTegic10102310092D

 25 27  0  0  0  0            999 V2000
    2.5981   -1.5000    0.0000 C   0  0
    1.2990   -0.7500    0.0000 C   0  0
    1.2990    0.7500    0.0000 C   0  0
    0.0000    1.5000    0.0000 C   0  0
    0.0000    3.0000    0.0000 C   0  0
   -1.2990    0.7500    0.0000 C   0  0
   -1.2990   -0.7500    0.0000 C   0  0
   -2.5987   -1.5004    0.0000 C   0  0
   -3.8991   -0.7525    0.0000 C   0  0
   -5.1969   -1.5046    0.0000 C   0  0
   -5.1945   -3.0046    0.0000 C   0  0
   -6.4915   -3.7597    0.0000 C   0  0
   -7.7931   -3.0141    0.0000 O   0  0
   -6.4870   -5.2605    0.0000 C   0  0
   -7.7822   -6.0172    0.0000 C   0  0
   -7.7746   -7.5172    0.0000 C   0  0
   -9.0699   -8.2737    0.0000 O   0  0
   -6.4718   -8.2606    0.0000 N   0  0
   -6.4643   -9.7606    0.0000 O   0  0
   -5.1766   -7.5040    0.0000 C   0  0
   -3.8738   -8.2475    0.0000 O   0  0
   -5.1842   -6.0041    0.0000 N   0  0
   -3.8943   -3.7525    0.0000 C   0  0
   -2.5964   -3.0004    0.0000 C   0  0
    0.0000   -1.5000    0.0000 C   0  0
  1  2  1  0
  2  3  2  0
  3  4  1  0
  4  5  1  0
  4  6  2  0
  6  7  1  0
  7  8  1  0
  8  9  2  0
  9 10  1  0
 10 11  2  0
 11 12  1  0
 12 13  2  0
 12 14  1  0
 14 15  2  0
 15 16  1  0
 16 17  2  0
 16 18  1  0
 18 19  1  0
 18 20  1  0
 20 21  2  0
 20 22  1  0
 22 14  1  0
 11 23  1  0
 23 24  2  0
 24  8  1  0
  7 25  2  0
 25  2  1  0
M  END
> <Smiles>
Cc1cc(C)cc(-c2ccc(C(=O)c3cc(=O)n(O)c(=O)[nH]3)cc2)c1

> <IC50_uM>
0.063

> <pIC50>
7.200659451

> <Activity>
1

$$$$

  SciTegic10102310092D

 32 35  0  0  0  0            999 V2000
    3.1676   -7.5606    0.0000 C   0  0
    1.7006   -7.2475    0.0000 C   0  0
    0.6960   -8.3614    0.0000 C   0  0
   -0.7710   -8.0483    0.0000 C   0  0
   -1.7756   -9.1622    0.0000 C   0  0
   -1.2333   -6.6213    0.0000 C   0  0
   -0.2287   -5.5075    0.0000 C   0  0
   -0.6913   -4.0797    0.0000 S   0  0
   -2.1584   -3.7671    0.0000 O   0  0
   -1.6957   -5.1937    0.0000 O   0  0
    0.3114   -2.9665    0.0000 C   0  0
    1.8032   -3.1233    0.0000 C   0  0
    2.5551   -4.4192    0.0000 C   0  0
    1.8074   -5.7196    0.0000 O   0  0
    4.0559   -4.4171    0.0000 N   0  0
    4.8090   -5.7153    0.0000 C   0  0
    6.3098   -5.7131    0.0000 C   0  0
    7.0644   -7.0095    0.0000 C   0  0
    8.5644   -7.0043    0.0000 C   0  0
    9.3099   -5.7026    0.0000 C   0  0
    8.5554   -4.4062    0.0000 C   0  0
    9.3009   -3.1046    0.0000 N   0  0
    7.0554   -4.4114    0.0000 C   0  0
    2.4133   -1.7530    0.0000 N   0  0
    1.2990   -0.7500    0.0000 C   0  0
    1.2990    0.7500    0.0000 C   0  0
    0.0000    1.5000    0.0000 C   0  0
   -1.2990    0.7500    0.0000 C   0  0
   -2.5981    1.5000    0.0000 Cl  0  0
   -1.2990   -0.7500    0.0000 C   0  0
    0.0000   -1.5000    0.0000 C   0  0
    1.2383   -5.8206    0.0000 C   0  0
  1  2  1  0
  2  3  2  0
  3  4  1  0
  4  5  1  0
  4  6  2  0
  6  7  1  0
  7  8  1  0
  8  9  2  0
  8 10  2  0
  8 11  1  0
 11 12  2  0
 12 13  1  0
 13 14  2  0
 13 15  1  0
 15 16  1  0
 16 17  1  0
 17 18  2  0
 18 19  1  0
 19 20  2  0
 20 21  1  0
 21 22  1  0
 21 23  2  0
 23 17  1  0
 12 24  1  0
 24 25  1  0
 25 26  2  0
 26 27  1  0
 27 28  2  0
 28 29  1  0
 28 30  1  0
 30 31  2  0
 31 11  1  0
 31 25  1  0
  7 32  2  0
 32  2  1  0
M  END
> <Smiles>
Cc1cc(C)cc(S(=O)(=O)c2c(C(=O)NCc3cccc(N)c3)[nH]c3ccc(Cl)cc23)c1

> <IC50_uM>
0.064

> <pIC50>
7.193820026

> <Activity>
1

$$$$

  SciTegic10102310092D

 36 39  0  0  0  0            999 V2000
    2.5981   -1.5000    0.0000 C   0  0
    1.2990   -0.7500    0.0000 C   0  0
    1.2990    0.7500    0.0000 C   0  0
    0.0000    1.5000    0.0000 C   0  0
    0.0000    3.0008    0.0000 C   0  0
    0.0000    4.5008    0.0000 N   0  0
   -1.2990    0.7500    0.0000 C   0  0
   -1.2990   -0.7500    0.0000 C   0  0
   -2.5981   -1.5000    0.0000 C   0  0
    0.0000   -1.5000    0.0000 C   0  0
    0.0031   -3.0008    0.0000 O   0  0
    1.3039   -3.7494    0.0000 C   0  0
    2.6005   -2.9949    0.0000 N   0  0
    3.9021   -3.7404    0.0000 C   0  0
    5.2008   -2.9882    0.0000 N   0  0
    6.5021   -3.7360    0.0000 C   0  0
    7.8012   -2.9860    0.0000 C   0  0
    9.1002   -3.7360    0.0000 C   0  0
    9.1002   -5.2360    0.0000 N   0  0
   10.3999   -5.9864    0.0000 C   0  0
   11.7002   -5.2385    0.0000 C   0  0
   12.9981   -5.9906    0.0000 C   0  0
   12.9957   -7.4906    0.0000 C   0  0
   11.6954   -8.2385    0.0000 C   0  0
   11.6900   -9.7394    0.0000 C   0  0
   12.9865  -10.4937    0.0000 N   0  0
   10.3887  -10.4854    0.0000 O   0  0
   10.3976   -7.4865    0.0000 C   0  0
    7.8012   -5.9860    0.0000 C   0  0
    6.5021   -5.2360    0.0000 C   0  0
    3.9073   -5.2404    0.0000 N   0  0
    2.6108   -5.9949    0.0000 C   0  0
    1.3092   -5.2494    0.0000 C   0  0
    0.0136   -6.0070    0.0000 N   0  3
    0.0210   -7.5070    0.0000 O   0  0
   -1.2893   -5.2638    0.0000 O   0  5
  1  2  1  0
  2  3  2  0
  3  4  1  0
  4  5  1  0
  5  6  3  0
  4  7  2  0
  7  8  1  0
  8  9  1  0
  8 10  2  0
 10  2  1  0
 10 11  1  0
 11 12  1  0
 12 13  2  0
 13 14  1  0
 14 15  1  0
 15 16  1  0
 16 17  1  0
 17 18  1  0
 18 19  1  0
 19 20  1  0
 20 21  2  0
 21 22  1  0
 22 23  2  0
 23 24  1  0
 24 25  1  0
 25 26  1  0
 25 27  2  0
 24 28  2  0
 28 20  1  0
 19 29  1  0
 29 30  1  0
 30 16  1  0
 14 31  2  0
 31 32  1  0
 32 33  2  0
 33 12  1  0
 33 34  1  0
 34 35  2  0
 34 36  1  0
M  CHG  2  34   1  36  -1
M  END
> <Smiles>
Cc1cc(C#N)cc(C)c1Oc1nc(NC2CCN(c3cccc(C(N)=O)c3)CC2)ncc1[N+](=O)[O-]

> <IC50_uM>
0.064

> <pIC50>
7.193820026

> <Activity>
1

$$$$

  SciTegic10102310092D

 32 34  0  0  0  0            999 V2000
    2.5981   -1.5000    0.0000 C   0  0
    1.2990   -0.7500    0.0000 C   0  0
    1.2990    0.7500    0.0000 C   0  0
    0.0000    1.5000    0.0000 C   0  0
    0.0000    3.0008    0.0000 C   0  0
    0.0000    4.5008    0.0000 N   0  0
   -1.2990    0.7500    0.0000 C   0  0
   -1.2990   -0.7500    0.0000 C   0  0
   -2.5981   -1.5000    0.0000 C   0  0
    0.0000   -1.5000    0.0000 C   0  0
    0.0031   -3.0008    0.0000 O   0  0
    1.3039   -3.7494    0.0000 C   0  0
    1.3092   -5.2494    0.0000 C   0  0
    2.6108   -5.9949    0.0000 C   0  0
    3.9073   -5.2404    0.0000 N   0  0
    3.9021   -3.7404    0.0000 C   0  0
    5.1992   -2.9855    0.0000 S   0  0
    5.1936   -1.4855    0.0000 O   0  0
    6.4953   -2.2304    0.0000 O   0  0
    6.5020   -3.7306    0.0000 C   0  0
    7.7992   -2.9757    0.0000 C   0  0
    7.7935   -1.4757    0.0000 O   0  0
    9.1020   -3.7208    0.0000 N   0  0
   10.3991   -2.9659    0.0000 C   0  0
   11.7024   -3.7087    0.0000 C   0  0
   12.9972   -2.9515    0.0000 C   0  0
   12.9890   -1.4516    0.0000 C   0  0
   14.2846   -0.6940    0.0000 C   0  0
   15.5795    0.0631    0.0000 N   0  0
   11.6859   -0.7087    0.0000 C   0  0
   10.3910   -1.4658    0.0000 C   0  0
    2.6004   -2.9949    0.0000 N   0  0
  1  2  1  0
  2  3  2  0
  3  4  1  0
  4  5  1  0
  5  6  3  0
  4  7  2  0
  7  8  1  0
  8  9  1  0
  8 10  2  0
 10  2  1  0
 10 11  1  0
 11 12  1  0
 12 13  2  0
 13 14  1  0
 14 15  2  0
 15 16  1  0
 16 17  1  0
 17 18  2  0
 17 19  2  0
 17 20  1  0
 20 21  1  0
 21 22  2  0
 21 23  1  0
 23 24  1  0
 24 25  2  0
 25 26  1  0
 26 27  2  0
 27 28  1  0
 28 29  3  0
 27 30  1  0
 30 31  2  0
 31 24  1  0
 16 32  2  0
 32 12  1  0
M  END
> <Smiles>
Cc1cc(C#N)cc(C)c1Oc1ccnc(S(=O)(=O)CC(=O)Nc2ccc(C#N)cc2)n1

> <IC50_uM>
0.065

> <pIC50>
7.187086643

> <Activity>
1

$$$$

  SciTegic10102310092D

 31 33  0  0  0  0            999 V2000
    3.8983   -0.7512    0.0000 C   0  0
    2.5988   -1.5004    0.0000 C   0  0
    2.5983   -3.0004    0.0000 C   0  0
    3.8975   -2.2510    0.0000 C   0  0
    1.2990   -0.7500    0.0000 C   0  0
    1.2990    0.7500    0.0000 C   0  0
    0.0000    1.5000    0.0000 C   0  0
   -1.2990    0.7500    0.0000 C   0  0
   -2.5987    1.5004    0.0000 N   0  0
   -3.9492    0.8772    0.0000 N   0  0
   -4.9546    1.9903    0.0000 N   0  0
   -4.2067    3.2905    0.0000 N   0  0
   -2.7390    2.9810    0.0000 C   0  0
   -1.6216    3.9790    0.0000 S   0  0
   -1.9268    5.4485    0.0000 C   0  0
   -0.8074    6.4482    0.0000 C   0  0
    0.6172    5.9785    0.0000 O   0  0
   -1.1126    7.9177    0.0000 N   0  0
    0.0068    8.9174    0.0000 C   0  0
    1.4306    8.4453    0.0000 C   0  0
    2.5514    9.4422    0.0000 C   0  0
    2.2485   10.9113    0.0000 C   0  0
    3.3678   11.9111    0.0000 C   0  0
    3.0628   13.3797    0.0000 O   0  0
    4.7924   11.4414    0.0000 O   0  0
    0.8247   11.3835    0.0000 C   0  0
   -0.2961   10.3866    0.0000 C   0  0
   -1.7198   10.8588    0.0000 Cl  0  0
   -1.2990   -0.7500    0.0000 C   0  0
   -2.5981   -1.5000    0.0000 Cl  0  0
    0.0000   -1.5000    0.0000 C   0  0
  1  2  1  0
  2  3  1  0
  2  4  1  0
  2  5  1  0
  5  6  2  0
  6  7  1  0
  7  8  2  0
  8  9  1  0
  9 10  1  0
 10 11  2  0
 11 12  1  0
 12 13  2  0
 13  9  1  0
 13 14  1  0
 14 15  1  0
 15 16  1  0
 16 17  2  0
 16 18  1  0
 18 19  1  0
 19 20  2  0
 20 21  1  0
 21 22  2  0
 22 23  1  0
 23 24  2  0
 23 25  1  0
 22 26  1  0
 26 27  2  0
 27 19  1  0
 27 28  1  0
  8 29  1  0
 29 30  1  0
 29 31  2  0
 31  5  1  0
M  END
> <Smiles>
CC(C)(C)c1ccc(-n2nnnc2SCC(=O)Nc2ccc(C(=O)O)cc2Cl)c(Cl)c1

> <IC50_uM>
0.066

> <pIC50>
7.180456064

> <Activity>
1

$$$$

  SciTegic10102310092D

 24 26  0  0  0  0            999 V2000
    2.5981   -1.5000    0.0000 C   0  0
    1.2990   -0.7500    0.0000 C   0  0
    1.2990    0.7500    0.0000 C   0  0
    0.0000    1.5000    0.0000 C   0  0
    0.0000    3.0000    0.0000 C   0  0
   -1.2990    0.7500    0.0000 C   0  0
   -1.2990   -0.7500    0.0000 C   0  0
   -2.5972   -1.5031    0.0000 O   0  0
   -2.5951   -3.0039    0.0000 C   0  0
   -3.8915   -3.7585    0.0000 C   0  0
   -5.1954   -3.0153    0.0000 C   0  0
   -6.4908   -3.7717    0.0000 C   0  0
   -5.2033   -1.5153    0.0000 C   0  0
   -3.8863   -5.2585    0.0000 C   0  0
   -5.1828   -6.0130    0.0000 O   0  0
   -2.5847   -6.0040    0.0000 N   0  0
   -1.2883   -5.2495    0.0000 C   0  0
    0.0134   -5.9950    0.0000 O   0  0
   -1.2935   -3.7495    0.0000 N   0  0
    0.0022   -2.9920    0.0000 C   0  0
    1.3065   -3.7344    0.0000 C   0  0
    2.7271   -3.6831    0.0000 C   0  0
    1.9823   -4.9851    0.0000 C   0  0
    0.0000   -1.5000    0.0000 C   0  0
  1  2  1  0
  2  3  2  0
  3  4  1  0
  4  5  1  0
  4  6  2  0
  6  7  1  0
  7  8  1  0
  8  9  1  0
  9 10  2  0
 10 11  1  0
 11 12  1  0
 11 13  1  0
 10 14  1  0
 14 15  2  0
 14 16  1  0
 16 17  1  0
 17 18  2  0
 17 19  1  0
 19  9  1  0
 19 20  1  0
 20 21  1  0
 21 22  1  0
 22 23  1  0
 23 21  1  0
  7 24  2  0
 24  2  1  0
M  END
> <Smiles>
Cc1cc(C)cc(Oc2c(C(C)C)c(=O)[nH]c(=O)n2CC2CC2)c1

> <IC50_uM>
0.067

> <pIC50>
7.173925197

> <Activity>
1

$$$$

  SciTegic10102310092D

 29 31  0  0  0  0            999 V2000
    5.2029   -2.9932    0.0000 O   0  0
    5.2003   -1.4932    0.0000 C   0  0
    3.8990   -0.7455    0.0000 C   0  0
    2.6003   -1.4977    0.0000 O   0  0
    1.2990   -0.7500    0.0000 C   0  0
    1.2990    0.7500    0.0000 C   0  0
    0.0000    1.5000    0.0000 C   0  0
   -1.2990    0.7500    0.0000 C   0  0
   -2.5981    1.5000    0.0000 Cl  0  0
   -1.2990   -0.7500    0.0000 C   0  0
    0.0000   -1.5000    0.0000 C   0  0
   -0.0031   -3.0008    0.0000 C   0  0
    1.2947   -3.7531    0.0000 O   0  0
   -1.3039   -3.7494    0.0000 C   0  0
   -1.3092   -5.2494    0.0000 C   0  0
   -2.6108   -5.9949    0.0000 C   0  0
   -2.6160   -7.4949    0.0000 F   0  0
   -3.9072   -5.2404    0.0000 C   0  0
   -3.9020   -3.7404    0.0000 C   0  0
   -5.1985   -2.9860    0.0000 F   0  0
   -2.6004   -2.9949    0.0000 C   0  0
    6.4990   -0.7409    0.0000 N   0  0
    7.8003   -1.4887    0.0000 C   0  0
    9.0994   -0.7387    0.0000 C   0  0
   10.3984   -1.4887    0.0000 C   0  0
   10.3985   -2.9887    0.0000 C   0  0
   11.6975   -3.7386    0.0000 Cl  0  0
    9.0995   -3.7387    0.0000 N   0  0
    7.8004   -2.9887    0.0000 C   0  0
  1  2  2  0
  2  3  1  0
  3  4  1  0
  4  5  1  0
  5  6  2  0
  6  7  1  0
  7  8  2  0
  8  9  1  0
  8 10  1  0
 10 11  2  0
 11  5  1  0
 11 12  1  0
 12 13  2  0
 12 14  1  0
 14 15  2  0
 15 16  1  0
 16 17  1  0
 16 18  2  0
 18 19  1  0
 19 20  1  0
 19 21  2  0
 21 14  1  0
  2 22  1  0
 22 23  1  0
 23 24  2  0
 24 25  1  0
 25 26  2  0
 26 27  1  0
 26 28  1  0
 28 29  2  0
 29 23  1  0
M  END
> <Smiles>
O=C(COc1ccc(Cl)cc1C(=O)c1cc(F)cc(F)c1)Nc1ccc(Cl)nc1

> <IC50_uM>
0.06761

> <pIC50>
7.169989064

> <Activity>
1

$$$$

  SciTegic10102310092D

 34 37  0  0  0  0            999 V2000
    3.1676   -7.5606    0.0000 C   0  0
    1.7006   -7.2475    0.0000 C   0  0
    0.6960   -8.3614    0.0000 C   0  0
   -0.7710   -8.0483    0.0000 C   0  0
   -1.7756   -9.1622    0.0000 C   0  0
   -1.2333   -6.6213    0.0000 C   0  0
   -0.2287   -5.5075    0.0000 C   0  0
   -0.6913   -4.0797    0.0000 S   0  0
   -2.1584   -3.7671    0.0000 O   0  0
   -1.6957   -5.1937    0.0000 O   0  0
    0.3114   -2.9665    0.0000 C   0  0
    1.8032   -3.1233    0.0000 C   0  0
    2.5551   -4.4192    0.0000 C   0  0
    1.8074   -5.7196    0.0000 O   0  0
    4.0559   -4.4171    0.0000 N   0  0
    4.8090   -5.7153    0.0000 C   0  0
    6.3098   -5.7131    0.0000 C   0  0
    7.0629   -7.0113    0.0000 O   0  0
    8.5638   -7.0091    0.0000 C   0  0
    9.3184   -8.3055    0.0000 C   0  0
   10.8184   -8.3003    0.0000 C   0  0
   11.5638   -6.9986    0.0000 C   0  0
   10.8093   -5.7022    0.0000 C   0  0
    9.3093   -5.7074    0.0000 C   0  0
    2.4133   -1.7530    0.0000 N   0  0
    1.2990   -0.7500    0.0000 C   0  0
    1.2990    0.7500    0.0000 C   0  0
    0.0000    1.5000    0.0000 C   0  0
   -1.2990    0.7500    0.0000 C   0  0
   -2.5981    1.5000    0.0000 Cl  0  0
   -1.2990   -0.7500    0.0000 C   0  0
   -2.5981   -1.5000    0.0000 F   0  0
    0.0000   -1.5000    0.0000 C   0  0
    1.2383   -5.8206    0.0000 C   0  0
  1  2  1  0
  2  3  2  0
  3  4  1  0
  4  5  1  0
  4  6  2  0
  6  7  1  0
  7  8  1  0
  8  9  2  0
  8 10  2  0
  8 11  1  0
 11 12  2  0
 12 13  1  0
 13 14  2  0
 13 15  1  0
 15 16  1  0
 16 17  1  0
 17 18  1  0
 18 19  1  0
 19 20  2  0
 20 21  1  0
 21 22  2  0
 22 23  1  0
 23 24  2  0
 24 19  1  0
 12 25  1  0
 25 26  1  0
 26 27  2  0
 27 28  1  0
 28 29  2  0
 29 30  1  0
 29 31  1  0
 31 32  1  0
 31 33  2  0
 33 11  1  0
 33 26  1  0
  7 34  2  0
 34  2  1  0
M  END
> <Smiles>
Cc1cc(C)cc(S(=O)(=O)c2c(C(=O)NCCOc3ccccc3)[nH]c3ccc(Cl)c(F)c23)c1

> <IC50_uM>
0.068

> <pIC50>
7.167491087

> <Activity>
1

$$$$

  SciTegic10102310092D

 25 27  0  0  0  0            999 V2000
    3.9075   -3.7444    0.0000 C   0  0
    2.6060   -2.9986    0.0000 C   0  0
    2.6003   -1.4977    0.0000 C   0  0  3  0  0  0
    1.2990   -0.7500    0.0000 C   0  0
    1.2990    0.7500    0.0000 N   0  0
    0.0000    1.5000    0.0000 C   0  0
   -0.0031    3.0008    0.0000 S   0  0
   -1.3039    3.7494    0.0000 C   0  0
   -1.4470    5.2297    0.0000 C   0  0
   -2.9153    5.5365    0.0000 C   0  0
   -3.6607    4.2349    0.0000 C   0  0
   -2.6532    3.1236    0.0000 C   0  0
   -1.2990    0.7500    0.0000 N   0  0
   -1.2990   -0.7500    0.0000 C   0  0
   -2.5981   -1.5000    0.0000 O   0  0
    0.0000   -1.5000    0.0000 C   0  0
    0.0000   -3.0000    0.0000 C   0  0
    3.8990   -0.7455    0.0000 C   0  0
    5.2007   -1.4909    0.0000 C   0  0
    5.2060   -2.9909    0.0000 F   0  0
    6.4972   -0.7364    0.0000 C   0  0
    6.4920    0.7636    0.0000 C   0  0
    5.1903    1.5091    0.0000 C   0  0
    3.8939    0.7546    0.0000 C   0  0
    2.5923    1.5001    0.0000 Cl  0  0
  1  2  1  0
  3  2  1  4
  3  4  1  0
  4  5  1  0
  5  6  2  0
  6  7  1  0
  7  8  1  0
  8  9  1  0
  9 10  1  0
 10 11  1  0
 11 12  1  0
 12  8  1  0
  6 13  1  0
 13 14  1  0
 14 15  2  0
 14 16  1  0
 16  4  2  0
 16 17  1  0
  3 18  1  0
 18 19  2  0
 19 20  1  0
 19 21  1  0
 21 22  2  0
 22 23  1  0
 23 24  2  0
 24 18  1  0
 24 25  1  0
M  END
> <Smiles>
CCC(c1nc(SC2CCCC2)[nH]c(=O)c1C)c1c(F)cccc1Cl

> <IC50_uM>
0.068

> <pIC50>
7.167491087

> <Activity>
1

$$$$

  SciTegic10102310092D

 29 31  0  0  0  0            999 V2000
    1.5621   -7.8701    0.0000 C   0  0
    0.9548   -6.4986    0.0000 C   0  0
   -0.5367   -6.3392    0.0000 C   0  0
    1.8372   -5.2877    0.0000 C   0  0
    3.3372   -5.2929    0.0000 N   0  0
    3.8056   -3.8679    0.0000 C   0  0
    5.2295   -3.4020    0.0000 C   0  0
    6.3476   -4.4031    0.0000 O   0  0
    7.7740   -3.9362    0.0000 C   0  0
    8.0822   -2.4682    0.0000 N   0  0
    8.8915   -4.9368    0.0000 O   0  0
    2.5951   -3.0039    0.0000 N   0  0
    2.5973   -1.5031    0.0000 C   0  0
    1.2990   -0.7500    0.0000 C   0  0
    1.2990    0.7500    0.0000 C   0  0
    0.0000    1.5000    0.0000 C   0  0
   -1.2990    0.7500    0.0000 N   0  0
   -1.2990   -0.7500    0.0000 C   0  0
    0.0000   -1.5000    0.0000 C   0  0
    1.3786   -3.8595    0.0000 C   0  0
   -0.0420   -3.3837    0.0000 S   0  0
   -1.1671   -4.3770    0.0000 C   0  0
   -2.5901   -3.9026    0.0000 C   0  0
   -3.7125   -4.8977    0.0000 C   0  0
   -5.1355   -4.4232    0.0000 Cl  0  0
   -3.4119   -6.3673    0.0000 C   0  0
   -1.9889   -6.8417    0.0000 C   0  0
   -1.6883   -8.3113    0.0000 Cl  0  0
   -0.8665   -5.8466    0.0000 C   0  0
  1  2  1  0
  2  3  1  0
  2  4  1  0
  4  5  1  0
  5  6  2  0
  6  7  1  0
  7  8  1  0
  8  9  1  0
  9 10  1  0
  9 11  2  0
  6 12  1  0
 12 13  1  0
 13 14  1  0
 14 15  2  0
 15 16  1  0
 16 17  2  0
 17 18  1  0
 18 19  2  0
 19 14  1  0
 12 20  1  0
 20  4  2  0
 20 21  1  0
 21 22  1  0
 22 23  2  0
 23 24  1  0
 24 25  1  0
 24 26  2  0
 26 27  1  0
 27 28  1  0
 27 29  2  0
 29 22  1  0
M  END
> <Smiles>
CC(C)c1nc(COC(N)=O)n(Cc2ccncc2)c1Sc1cc(Cl)cc(Cl)c1

> <IC50_uM>
0.068

> <pIC50>
7.167491087

> <Activity>
1

$$$$

  SciTegic10102310092D

 27 29  0  0  0  0            999 V2000
    2.5981   -1.5000    0.0000 C   0  0
    1.2990   -0.7500    0.0000 C   0  0
    1.2990    0.7500    0.0000 C   0  0
    2.5972    1.5031    0.0000 C   0  0  3  0  0  0
    3.8976    0.7554    0.0000 C   0  0
    2.5951    3.0039    0.0000 C   0  0
    3.8915    3.7585    0.0000 C   0  0
    5.1932    3.0131    0.0000 F   0  0
    3.8863    5.2585    0.0000 C   0  0
    2.5847    6.0040    0.0000 C   0  0
    1.2883    5.2495    0.0000 C   0  0
    1.2934    3.7495    0.0000 C   0  0
   -0.0030    2.9951    0.0000 F   0  0
    0.0000    1.5000    0.0000 N   0  0
   -1.2990    0.7500    0.0000 C   0  0
   -2.6003    1.4977    0.0000 N   0  0
   -3.8990    0.7455    0.0000 C   0  0
   -5.2007    1.4909    0.0000 C   0  0
   -6.4972    0.7364    0.0000 C   0  0
   -6.4920   -0.7636    0.0000 C   0  0
   -7.7891   -1.5185    0.0000 C   0  0
   -9.0855   -2.2730    0.0000 N   0  0
   -5.1903   -1.5091    0.0000 C   0  0
   -3.8939   -0.7546    0.0000 C   0  0
   -1.2990   -0.7500    0.0000 N   0  0
    0.0000   -1.5000    0.0000 C   0  0
    0.0000   -3.0000    0.0000 O   0  0
  1  2  1  0
  2  3  2  0
  3  4  1  0
  4  5  1  4
  4  6  1  0
  6  7  2  0
  7  8  1  0
  7  9  1  0
  9 10  2  0
 10 11  1  0
 11 12  2  0
 12  6  1  0
 12 13  1  0
  3 14  1  0
 14 15  2  0
 15 16  1  0
 16 17  1  0
 17 18  2  0
 18 19  1  0
 19 20  2  0
 20 21  1  0
 21 22  3  0
 20 23  1  0
 23 24  2  0
 24 17  1  0
 15 25  1  0
 25 26  1  0
 26  2  1  0
 26 27  2  0
M  END
> <Smiles>
Cc1c(C(C)c2c(F)cccc2F)nc(Nc2ccc(C#N)cc2)[nH]c1=O

> <IC50_uM>
0.069

> <pIC50>
7.161150909

> <Activity>
1

$$$$

  SciTegic10102310092D

 32 35  0  0  0  0            999 V2000
    3.1676   -7.5606    0.0000 C   0  0
    1.7006   -7.2475    0.0000 C   0  0
    0.6960   -8.3614    0.0000 C   0  0
   -0.7710   -8.0483    0.0000 C   0  0
   -1.7756   -9.1622    0.0000 C   0  0
   -1.2333   -6.6213    0.0000 C   0  0
   -0.2287   -5.5075    0.0000 C   0  0
   -0.6913   -4.0797    0.0000 S   0  0
   -2.1584   -3.7671    0.0000 O   0  0
   -1.6957   -5.1937    0.0000 O   0  0
    0.3114   -2.9665    0.0000 C   0  0
    1.8032   -3.1233    0.0000 C   0  0
    2.5551   -4.4192    0.0000 C   0  0
    1.8074   -5.7196    0.0000 O   0  0
    4.0559   -4.4171    0.0000 N   0  0
    4.8090   -5.7153    0.0000 C   0  0
    6.3098   -5.7131    0.0000 C   0  0
    7.0554   -4.4114    0.0000 C   0  0
    8.5554   -4.4062    0.0000 C   0  0
    9.3099   -5.7026    0.0000 C   0  0
    8.5644   -7.0043    0.0000 C   0  0
    7.0644   -7.0095    0.0000 C   0  0
    6.3190   -8.3111    0.0000 F   0  0
    2.4133   -1.7530    0.0000 N   0  0
    1.2990   -0.7500    0.0000 C   0  0
    1.2990    0.7500    0.0000 C   0  0
    0.0000    1.5000    0.0000 C   0  0
   -1.2990    0.7500    0.0000 C   0  0
   -2.5981    1.5000    0.0000 Cl  0  0
   -1.2990   -0.7500    0.0000 C   0  0
    0.0000   -1.5000    0.0000 C   0  0
    1.2383   -5.8206    0.0000 C   0  0
  1  2  1  0
  2  3  2  0
  3  4  1  0
  4  5  1  0
  4  6  2  0
  6  7  1  0
  7  8  1  0
  8  9  2  0
  8 10  2  0
  8 11  1  0
 11 12  2  0
 12 13  1  0
 13 14  2  0
 13 15  1  0
 15 16  1  0
 16 17  1  0
 17 18  2  0
 18 19  1  0
 19 20  2  0
 20 21  1  0
 21 22  2  0
 22 17  1  0
 22 23  1  0
 12 24  1  0
 24 25  1  0
 25 26  2  0
 26 27  1  0
 27 28  2  0
 28 29  1  0
 28 30  1  0
 30 31  2  0
 31 11  1  0
 31 25  1  0
  7 32  2  0
 32  2  1  0
M  END
> <Smiles>
Cc1cc(C)cc(S(=O)(=O)c2c(C(=O)NCc3ccccc3F)[nH]c3ccc(Cl)cc23)c1

> <IC50_uM>
0.07

> <pIC50>
7.15490196

> <Activity>
1

$$$$

  SciTegic10102310092D

 22 24  0  0  0  0            999 V2000
    3.1676   -7.5606    0.0000 C   0  0
    1.7006   -7.2475    0.0000 C   0  0
    0.6960   -8.3614    0.0000 C   0  0
   -0.7710   -8.0483    0.0000 C   0  0
   -1.7756   -9.1622    0.0000 C   0  0
   -1.2333   -6.6213    0.0000 C   0  0
   -0.2287   -5.5075    0.0000 C   0  0
   -0.6913   -4.0797    0.0000 S   0  0
   -2.1584   -3.7671    0.0000 O   0  0
   -1.6957   -5.1937    0.0000 O   0  0
    0.3114   -2.9665    0.0000 N   0  0
    1.8032   -3.1233    0.0000 C   0  0
    2.5532   -4.4223    0.0000 O   0  0
    2.4133   -1.7530    0.0000 N   0  0
    1.2990   -0.7500    0.0000 C   0  0
    1.2990    0.7500    0.0000 C   0  0
    0.0000    1.5000    0.0000 C   0  0
   -1.2990    0.7500    0.0000 C   0  0
   -2.5981    1.5000    0.0000 Cl  0  0
   -1.2990   -0.7500    0.0000 N   0  0
    0.0000   -1.5000    0.0000 C   0  0
    1.2383   -5.8206    0.0000 C   0  0
  1  2  1  0
  2  3  2  0
  3  4  1  0
  4  5  1  0
  4  6  2  0
  6  7  1  0
  7  8  1  0
  8  9  2  0
  8 10  2  0
  8 11  1  0
 11 12  1  0
 12 13  2  0
 12 14  1  0
 14 15  1  0
 15 16  2  0
 16 17  1  0
 17 18  2  0
 18 19  1  0
 18 20  1  0
 20 21  2  0
 21 15  1  0
 21 11  1  0
  7 22  2  0
 22  2  1  0
M  END
> <Smiles>
Cc1cc(C)cc(S(=O)(=O)n2c(=O)[nH]c3ccc(Cl)nc32)c1

> <IC50_uM>
0.07

> <pIC50>
7.15490196

> <Activity>
1

$$$$

  SciTegic10102310092D

 21 23  0  0  0  0            999 V2000
    3.1676   -7.5606    0.0000 C   0  0
    1.7006   -7.2475    0.0000 C   0  0
    0.6960   -8.3614    0.0000 C   0  0
   -0.7710   -8.0483    0.0000 C   0  0
   -1.2333   -6.6213    0.0000 C   0  0
   -0.2287   -5.5075    0.0000 C   0  0
   -0.6913   -4.0797    0.0000 S   0  0
   -2.1584   -3.7671    0.0000 O   0  0
   -1.6957   -5.1937    0.0000 O   0  0
    0.3114   -2.9665    0.0000 N   0  0
    1.8032   -3.1233    0.0000 C   0  0
    2.5532   -4.4223    0.0000 O   0  0
    2.4133   -1.7530    0.0000 N   0  0
    1.2990   -0.7500    0.0000 C   0  0
    1.2990    0.7500    0.0000 C   0  0
    0.0000    1.5000    0.0000 C   0  0
   -1.2990    0.7500    0.0000 C   0  0
   -2.5981    1.5000    0.0000 Cl  0  0
   -1.2990   -0.7500    0.0000 C   0  0
    0.0000   -1.5000    0.0000 C   0  0
    1.2383   -5.8206    0.0000 C   0  0
  1  2  1  0
  2  3  2  0
  3  4  1  0
  4  5  2  0
  5  6  1  0
  6  7  1  0
  7  8  2  0
  7  9  2  0
  7 10  1  0
 10 11  1  0
 11 12  2  0
 11 13  1  0
 13 14  1  0
 14 15  2  0
 15 16  1  0
 16 17  2  0
 17 18  1  0
 17 19  1  0
 19 20  2  0
 20 14  1  0
 20 10  1  0
  6 21  2  0
 21  2  1  0
M  END
> <Smiles>
Cc1cccc(S(=O)(=O)n2c(=O)[nH]c3ccc(Cl)cc32)c1

> <IC50_uM>
0.07

> <pIC50>
7.15490196

> <Activity>
1

$$$$

  SciTegic10102310092D

 32 35  0  0  0  0            999 V2000
    2.5981   -1.5000    0.0000 C   0  0
    1.2990   -0.7500    0.0000 C   0  0
    1.2990    0.7500    0.0000 C   0  0
    0.0000    1.5000    0.0000 C   0  0
    0.0000    3.0008    0.0000 C   0  0
    0.0000    4.5008    0.0000 N   0  0
   -1.2990    0.7500    0.0000 C   0  0
   -1.2990   -0.7500    0.0000 C   0  0
   -2.5981   -1.5000    0.0000 C   0  0
    0.0000   -1.5000    0.0000 C   0  0
    0.0031   -3.0008    0.0000 O   0  0
    1.3039   -3.7494    0.0000 C   0  0
    2.6005   -2.9949    0.0000 N   0  0
    3.9021   -3.7404    0.0000 C   0  0
    5.2008   -2.9882    0.0000 N   0  0
    6.5021   -3.7360    0.0000 C   0  0
    7.8012   -2.9860    0.0000 C   0  0
    9.1002   -3.7360    0.0000 C   0  0
    9.1002   -5.2360    0.0000 N   0  0
   10.3984   -5.9891    0.0000 C   0  0
   10.3963   -7.4900    0.0000 C   0  0
   11.6927   -8.2445    0.0000 C   0  0
   11.6875   -9.7445    0.0000 C   0  0
   10.3859  -10.4900    0.0000 C   0  0
    9.0894   -9.7355    0.0000 C   0  0
    9.0946   -8.2355    0.0000 C   0  0
    7.8012   -5.9860    0.0000 C   0  0
    6.5021   -5.2360    0.0000 C   0  0
    3.9073   -5.2404    0.0000 N   0  0
    2.6108   -5.9949    0.0000 C   0  0
    1.3092   -5.2494    0.0000 C   0  0
    0.0128   -6.0039    0.0000 Br  0  0
  1  2  1  0
  2  3  2  0
  3  4  1  0
  4  5  1  0
  5  6  3  0
  4  7  2  0
  7  8  1  0
  8  9  1  0
  8 10  2  0
 10  2  1  0
 10 11  1  0
 11 12  1  0
 12 13  2  0
 13 14  1  0
 14 15  1  0
 15 16  1  0
 16 17  1  0
 17 18  1  0
 18 19  1  0
 19 20  1  0
 20 21  1  0
 21 22  2  0
 22 23  1  0
 23 24  2  0
 24 25  1  0
 25 26  2  0
 26 21  1  0
 19 27  1  0
 27 28  1  0
 28 16  1  0
 14 29  2  0
 29 30  1  0
 30 31  2  0
 31 12  1  0
 31 32  1  0
M  END
> <Smiles>
Cc1cc(C#N)cc(C)c1Oc1nc(NC2CCN(Cc3ccccc3)CC2)ncc1Br

> <IC50_uM>
0.07

> <pIC50>
7.15490196

> <Activity>
1

$$$$

  SciTegic10102310092D

 27 29  0  0  0  0            999 V2000
    3.8978   -2.2504    0.0000 N   0  0
    2.5988   -1.5004    0.0000 C   0  0
    1.2990   -0.7500    0.0000 C   0  0
    1.2990    0.7500    0.0000 C   0  0
    0.0000    1.5000    0.0000 C   0  0
   -1.2990    0.7500    0.0000 C   0  0
   -2.6003    1.4977    0.0000 N   0  0
   -3.8990    0.7455    0.0000 C   0  0
   -5.2007    1.4909    0.0000 N   0  0
   -6.4972    0.7364    0.0000 C   0  0
   -6.4920   -0.7636    0.0000 C   0  0
   -5.1903   -1.5091    0.0000 C   0  0
   -5.1821   -3.0099    0.0000 N   0  0
   -3.8787   -3.7540    0.0000 C   0  0
   -3.8704   -5.2548    0.0000 C   0  0
   -2.5687   -6.0003    0.0000 C   0  0
   -2.5635   -7.5003    0.0000 C   0  0
   -3.8599   -8.2548    0.0000 C   0  0
   -3.8547   -9.7556    0.0000 C   0  0
   -2.5535  -10.5019    0.0000 F   0  0
   -5.1514  -10.5098    0.0000 F   0  0
   -3.8502  -11.2556    0.0000 F   0  0
   -5.1616   -7.5094    0.0000 C   0  0
   -5.1668   -6.0094    0.0000 C   0  0
   -3.8939   -0.7546    0.0000 N   0  0
   -1.2990   -0.7500    0.0000 C   0  0
    0.0000   -1.5000    0.0000 C   0  0
  1  2  3  0
  2  3  1  0
  3  4  2  0
  4  5  1  0
  5  6  2  0
  6  7  1  0
  7  8  1  0
  8  9  2  0
  9 10  1  0
 10 11  2  0
 11 12  1  0
 12 13  1  0
 13 14  1  0
 14 15  1  0
 15 16  2  0
 16 17  1  0
 17 18  2  0
 18 19  1  0
 19 20  1  0
 19 21  1  0
 19 22  1  0
 18 23  1  0
 23 24  2  0
 24 15  1  0
 12 25  2  0
 25  8  1  0
  6 26  1  0
 26 27  2  0
 27  3  1  0
M  END
> <Smiles>
N#Cc1ccc(Nc2nccc(NCc3ccc(C(F)(F)F)cc3)n2)cc1

> <IC50_uM>
0.07

> <pIC50>
7.15490196

> <Activity>
1

$$$$

  SciTegic10102310092D

 24 26  0  0  0  0            999 V2000
    3.8978   -2.2504    0.0000 N   0  0
    2.5988   -1.5004    0.0000 C   0  0
    1.2990   -0.7500    0.0000 C   0  0
    1.2990    0.7500    0.0000 C   0  0
    0.0000    1.5000    0.0000 C   0  0
   -1.2990    0.7500    0.0000 C   0  0
   -2.6003    1.4977    0.0000 N   0  0
   -3.8990    0.7455    0.0000 C   0  0
   -5.2007    1.4909    0.0000 N   0  0
   -6.4972    0.7364    0.0000 C   0  0
   -6.4920   -0.7636    0.0000 C   0  0
   -5.1903   -1.5091    0.0000 C   0  0
   -5.1821   -3.0099    0.0000 N   0  0
   -3.8787   -3.7540    0.0000 C   0  0
   -3.8704   -5.2548    0.0000 C   0  0
   -5.1668   -6.0094    0.0000 C   0  0
   -5.1616   -7.5094    0.0000 C   0  0
   -3.8599   -8.2548    0.0000 C   0  0
   -2.5635   -7.5003    0.0000 C   0  0
   -2.5687   -6.0003    0.0000 C   0  0
   -1.2723   -5.2458    0.0000 Br  0  0
   -3.8939   -0.7546    0.0000 N   0  0
   -1.2990   -0.7500    0.0000 C   0  0
    0.0000   -1.5000    0.0000 C   0  0
  1  2  3  0
  2  3  1  0
  3  4  2  0
  4  5  1  0
  5  6  2  0
  6  7  1  0
  7  8  1  0
  8  9  2  0
  9 10  1  0
 10 11  2  0
 11 12  1  0
 12 13  1  0
 13 14  1  0
 14 15  1  0
 15 16  2  0
 16 17  1  0
 17 18  2  0
 18 19  1  0
 19 20  2  0
 20 15  1  0
 20 21  1  0
 12 22  2  0
 22  8  1  0
  6 23  1  0
 23 24  2  0
 24  3  1  0
M  END
> <Smiles>
N#Cc1ccc(Nc2nccc(NCc3ccccc3Br)n2)cc1

> <IC50_uM>
0.071

> <pIC50>
7.148741651

> <Activity>
1

$$$$

  SciTegic10102310092D

 22 24  0  0  0  0            999 V2000
    1.8073   -5.7196    0.0000 N   0  0
    2.5551   -4.4192    0.0000 C   0  0
    4.0551   -4.4171    0.0000 O   0  0
    1.8032   -3.1233    0.0000 C   0  0
    2.4133   -1.7530    0.0000 N   0  0
    1.2990   -0.7500    0.0000 C   0  0
    1.2990    0.7500    0.0000 C   0  0
    0.0000    1.5000    0.0000 C   0  0
   -1.2990    0.7500    0.0000 C   0  0
   -2.5981    1.5000    0.0000 Cl  0  0
   -1.2990   -0.7500    0.0000 C   0  0
    0.0000   -1.5000    0.0000 C   0  0
    0.3114   -2.9665    0.0000 C   0  0
   -0.6913   -4.0797    0.0000 S   0  0
   -0.2276   -5.5062    0.0000 O   0  0
    0.7759   -4.3916    0.0000 O   0  0
   -2.1595   -3.7683    0.0000 C   0  0
   -3.1627   -4.8835    0.0000 C   0  0
   -4.6300   -4.5722    0.0000 C   0  0
   -5.0942   -3.1458    0.0000 C   0  0
   -4.0910   -2.0307    0.0000 C   0  0
   -2.6236   -2.3419    0.0000 C   0  0
  1  2  1  0
  2  3  2  0
  2  4  1  0
  4  5  1  0
  5  6  1  0
  6  7  2  0
  7  8  1  0
  8  9  2  0
  9 10  1  0
  9 11  1  0
 11 12  2  0
 12  6  1  0
 12 13  1  0
 13  4  2  0
 13 14  1  0
 14 15  2  0
 14 16  2  0
 14 17  1  0
 17 18  2  0
 18 19  1  0
 19 20  2  0
 20 21  1  0
 21 22  2  0
 22 17  1  0
M  END
> <Smiles>
NC(=O)c1[nH]c2ccc(Cl)cc2c1S(=O)(=O)c1ccccc1

> <IC50_uM>
0.071

> <pIC50>
7.148741651

> <Activity>
1

$$$$

  SciTegic10102310092D

 25 27  0  0  0  0            999 V2000
    3.8978   -2.2504    0.0000 N   0  0
    2.5988   -1.5004    0.0000 C   0  0
    1.2990   -0.7500    0.0000 C   0  0
    1.2990    0.7500    0.0000 C   0  0
    0.0000    1.5000    0.0000 C   0  0
    0.0000    3.0000    0.0000 Cl  0  0
   -1.2990    0.7500    0.0000 C   0  0
   -1.2990   -0.7500    0.0000 C   0  0
   -2.5972   -1.5031    0.0000 O   0  0
   -2.5951   -3.0039    0.0000 C   0  0
   -3.8915   -3.7585    0.0000 C   0  0
   -5.1954   -3.0153    0.0000 C   0  0
   -6.4915   -3.7721    0.0000 C   0  0
   -7.7958   -3.0312    0.0000 C   0  0
   -9.0896   -3.7903    0.0000 C   0  0
   -9.0791   -5.2902    0.0000 C   0  0
   -7.7749   -6.0312    0.0000 C   0  0
   -6.4811   -5.2722    0.0000 C   0  0
   -3.8863   -5.2585    0.0000 C   0  0
   -2.5847   -6.0040    0.0000 N   0  0
   -1.2883   -5.2495    0.0000 C   0  0
    0.0134   -5.9950    0.0000 O   0  0
   -1.2935   -3.7495    0.0000 C   0  0
    0.0030   -2.9951    0.0000 Br  0  0
    0.0000   -1.5000    0.0000 C   0  0
  1  2  3  0
  2  3  1  0
  3  4  2  0
  4  5  1  0
  5  6  1  0
  5  7  2  0
  7  8  1  0
  8  9  1  0
  9 10  1  0
 10 11  1  0
 11 12  1  0
 12 13  1  0
 13 14  2  0
 14 15  1  0
 15 16  2  0
 16 17  1  0
 17 18  2  0
 18 13  1  0
 11 19  2  0
 19 20  1  0
 20 21  1  0
 21 22  2  0
 21 23  1  0
 23 10  2  0
 23 24  1  0
  8 25  2  0
 25  3  1  0
M  END
> <Smiles>
N#Cc1cc(Cl)cc(Oc2c(Cc3ccccc3)c[nH]c(=O)c2Br)c1

> <IC50_uM>
0.071

> <pIC50>
7.148741651

> <Activity>
1

$$$$

  SciTegic10102310092D

 33 36  0  0  0  0            999 V2000
    3.8978   -2.2504    0.0000 N   0  0
    2.5988   -1.5004    0.0000 C   0  0
    1.2990   -0.7500    0.0000 C   0  0
    1.2990    0.7500    0.0000 C   0  0
    0.0000    1.5000    0.0000 C   0  0
   -1.2990    0.7500    0.0000 C   0  0
   -2.5981    1.5000    0.0000 C   0  0
   -2.5981    3.0000    0.0000 F   0  0
   -3.8971    0.7500    0.0000 C   0  0
   -3.8971   -0.7500    0.0000 C   0  0
   -5.1984   -1.4978    0.0000 O   0  0
   -6.4971   -0.7455    0.0000 C   0  0
   -6.4920    0.7545    0.0000 C   0  0
   -7.7884    1.5090    0.0000 C   0  0
   -9.0901    0.7635    0.0000 C   0  0
  -10.3865    1.5180    0.0000 F   0  0
   -9.0952   -0.7365    0.0000 C   0  0
   -7.7988   -1.4910    0.0000 C   0  0
   -7.8071   -2.9918    0.0000 O   0  0
   -9.1105   -3.7358    0.0000 C   0  0
   -9.1188   -5.2366    0.0000 C   0  0
  -10.4223   -5.9806    0.0000 N   0  0
  -11.7162   -5.2216    0.0000 C   0  0
  -13.0204   -5.9626    0.0000 C   0  0
  -13.0308   -7.4626    0.0000 C   0  0
  -14.3350   -8.2035    0.0000 O   0  0
  -11.7370   -8.2216    0.0000 N   0  0
  -10.4328   -7.4806    0.0000 C   0  0
   -9.1390   -8.2397    0.0000 O   0  0
   -2.5981   -1.5000    0.0000 C   0  0
   -2.5981   -3.0000    0.0000 Cl  0  0
   -1.2990   -0.7500    0.0000 C   0  0
    0.0000   -1.5000    0.0000 C   0  0
  1  2  3  0
  2  3  1  0
  3  4  2  0
  4  5  1  0
  5  6  2  0
  6  7  1  0
  7  8  1  0
  7  9  2  0
  9 10  1  0
 10 11  1  0
 11 12  1  0
 12 13  2  0
 13 14  1  0
 14 15  2  0
 15 16  1  0
 15 17  1  0
 17 18  2  0
 18 12  1  0
 18 19  1  0
 19 20  1  0
 20 21  1  0
 21 22  1  0
 22 23  1  0
 23 24  2  0
 24 25  1  0
 25 26  2  0
 25 27  1  0
 27 28  1  0
 28 22  1  0
 28 29  2  0
 10 30  2  0
 30 31  1  0
 30 32  1  0
 32  6  1  0
 32 33  2  0
 33  3  1  0
M  END
> <Smiles>
N#Cc1ccc2c(F)cc(Oc3ccc(F)cc3OCCn3ccc(=O)[nH]c3=O)c(Cl)c2c1

> <IC50_uM>
0.072

> <pIC50>
7.142667504

> <Activity>
1

$$$$

  SciTegic10102310092D

 35 38  0  0  0  0            999 V2000
    2.5981   -1.5000    0.0000 C   0  0
    1.2990   -0.7500    0.0000 C   0  0
    1.2990    0.7500    0.0000 C   0  0
    0.0000    1.5000    0.0000 C   0  0
    0.0000    3.0008    0.0000 C   0  0
    0.0000    4.5008    0.0000 N   0  0
   -1.2990    0.7500    0.0000 C   0  0
   -1.2990   -0.7500    0.0000 C   0  0
   -2.5981   -1.5000    0.0000 C   0  0
    0.0000   -1.5000    0.0000 C   0  0
    0.0031   -3.0008    0.0000 O   0  0
    1.3039   -3.7494    0.0000 C   0  0
    2.6005   -2.9949    0.0000 N   0  0
    3.9021   -3.7404    0.0000 C   0  0
    5.2008   -2.9882    0.0000 N   0  0
    6.5021   -3.7360    0.0000 C   0  0
    7.8012   -2.9860    0.0000 C   0  0
    9.1002   -3.7360    0.0000 C   0  0
    9.1002   -5.2360    0.0000 N   0  0
   10.3999   -5.9864    0.0000 C   0  0
   11.7002   -5.2385    0.0000 C   0  0
   12.9981   -5.9906    0.0000 C   0  0
   12.9957   -7.4906    0.0000 C   0  0
   11.6954   -8.2385    0.0000 C   0  0
   11.6931   -9.7394    0.0000 S   0  0
   10.3926  -10.4869    0.0000 N   0  0
   12.9904  -10.4922    0.0000 O   0  0
   11.6900  -11.2394    0.0000 O   0  0
   10.3976   -7.4865    0.0000 C   0  0
    7.8012   -5.9860    0.0000 C   0  0
    6.5021   -5.2360    0.0000 C   0  0
    3.9073   -5.2404    0.0000 N   0  0
    2.6108   -5.9949    0.0000 C   0  0
    1.3092   -5.2494    0.0000 C   0  0
    0.0128   -6.0039    0.0000 Br  0  0
  1  2  1  0
  2  3  2  0
  3  4  1  0
  4  5  1  0
  5  6  3  0
  4  7  2  0
  7  8  1  0
  8  9  1  0
  8 10  2  0
 10  2  1  0
 10 11  1  0
 11 12  1  0
 12 13  2  0
 13 14  1  0
 14 15  1  0
 15 16  1  0
 16 17  1  0
 17 18  1  0
 18 19  1  0
 19 20  1  0
 20 21  2  0
 21 22  1  0
 22 23  2  0
 23 24  1  0
 24 25  1  0
 25 26  1  0
 25 27  2  0
 25 28  2  0
 24 29  2  0
 29 20  1  0
 19 30  1  0
 30 31  1  0
 31 16  1  0
 14 32  2  0
 32 33  1  0
 33 34  2  0
 34 12  1  0
 34 35  1  0
M  END
> <Smiles>
Cc1cc(C#N)cc(C)c1Oc1nc(NC2CCN(c3cccc(S(N)(=O)=O)c3)CC2)ncc1Br

> <IC50_uM>
0.072

> <pIC50>
7.142667504

> <Activity>
1

$$$$

  SciTegic10102310092D

 29 31  0  0  0  0            999 V2000
    2.5951   -3.0031    0.0000 C   0  0
    2.5973   -1.5031    0.0000 O   0  0
    1.2990   -0.7500    0.0000 C   0  0
    1.2990    0.7500    0.0000 C   0  0
    0.0000    1.5000    0.0000 C   0  0
   -1.2990    0.7500    0.0000 C   0  0
   -2.6003    1.4977    0.0000 C   0  0
   -3.8990    0.7455    0.0000 S   0  0
   -5.2003    1.4932    0.0000 C   0  0
   -6.4994    0.7432    0.0000 N   0  0
   -7.7985    1.4932    0.0000 C   0  0
   -9.0967    0.7401    0.0000 C   0  0
  -10.3970    1.4878    0.0000 O   0  0
   -9.0945   -0.7608    0.0000 C   0  0
   -7.7928   -1.5063    0.0000 C   0  0
   -7.7876   -3.0063    0.0000 C   0  0
   -9.0840   -3.7608    0.0000 C   0  0
  -10.3857   -3.0154    0.0000 C   0  0
  -10.3909   -1.5154    0.0000 C   0  0
  -11.6926   -0.7699    0.0000 F   0  0
   -7.7985    2.9932    0.0000 C   0  0
   -9.0967    3.7462    0.0000 C   0  0
   -9.0947    5.2462    0.0000 C   0  0
  -10.3971    2.9985    0.0000 C   0  0
   -6.4995    3.7432    0.0000 C   0  0
   -6.4995    5.2432    0.0000 O   0  0
   -5.2004    2.9933    0.0000 N   0  0
   -1.2990   -0.7500    0.0000 C   0  0
    0.0000   -1.5000    0.0000 C   0  0
  1  2  1  0
  2  3  1  0
  3  4  2  0
  4  5  1  0
  5  6  2  0
  6  7  1  0
  7  8  1  0
  8  9  1  0
  9 10  2  0
 10 11  1  0
 11 12  1  0
 12 13  2  0
 12 14  1  0
 14 15  2  0
 15 16  1  0
 16 17  2  0
 17 18  1  0
 18 19  2  0
 19 14  1  0
 19 20  1  0
 11 21  2  0
 21 22  1  0
 22 23  1  0
 22 24  1  0
 21 25  1  0
 25 26  2  0
 25 27  1  0
 27  9  1  0
  6 28  1  0
 28 29  2  0
 29  3  1  0
M  END
> <Smiles>
COc1ccc(CSc2nc(C(=O)c3ccccc3F)c(C(C)C)c(=O)[nH]2)cc1

> <IC50_uM>
0.072

> <pIC50>
7.142667504

> <Activity>
1

$$$$

  SciTegic10102310092D

 30 32  0  0  0  0            999 V2000
    2.5951   -3.0031    0.0000 C   0  0
    2.5973   -1.5031    0.0000 O   0  0
    1.2990   -0.7500    0.0000 C   0  0
    1.2990    0.7500    0.0000 C   0  0
    0.0000    1.5000    0.0000 C   0  0
   -1.2990    0.7500    0.0000 C   0  0
   -2.6003    1.4977    0.0000 N   0  0
   -3.8990    0.7455    0.0000 C   0  0
   -3.8964   -0.7545    0.0000 O   0  0
   -5.2003    1.4932    0.0000 C   0  0
   -6.4990    0.7409    0.0000 O   0  0
   -7.8003    1.4887    0.0000 C   0  0
   -7.8004    2.9887    0.0000 C   0  0
   -9.0995    3.7387    0.0000 C   0  0
  -10.3985    2.9886    0.0000 C   0  0
  -11.6976    3.7386    0.0000 Cl  0  0
  -10.3984    1.4886    0.0000 C   0  0
   -9.0994    0.7387    0.0000 C   0  0
   -9.1025   -0.7622    0.0000 C   0  0
   -7.8048   -1.5144    0.0000 O   0  0
  -10.4033   -1.5107    0.0000 C   0  0
  -10.4086   -3.0107    0.0000 C   0  0
  -11.7102   -3.7562    0.0000 C   0  0
  -11.7154   -5.2562    0.0000 F   0  0
  -13.0066   -3.0017    0.0000 C   0  0
  -13.0015   -1.5017    0.0000 C   0  0
  -14.2979   -0.7472    0.0000 F   0  0
  -11.6998   -0.7562    0.0000 C   0  0
   -1.2990   -0.7500    0.0000 C   0  0
    0.0000   -1.5000    0.0000 N   0  0
  1  2  1  0
  2  3  1  0
  3  4  2  0
  4  5  1  0
  5  6  2  0
  6  7  1  0
  7  8  1  0
  8  9  2  0
  8 10  1  0
 10 11  1  0
 11 12  1  0
 12 13  2  0
 13 14  1  0
 14 15  2  0
 15 16  1  0
 15 17  1  0
 17 18  2  0
 18 12  1  0
 18 19  1  0
 19 20  2  0
 19 21  1  0
 21 22  2  0
 22 23  1  0
 23 24  1  0
 23 25  2  0
 25 26  1  0
 26 27  1  0
 26 28  2  0
 28 21  1  0
  6 29  1  0
 29 30  2  0
 30  3  1  0
M  END
> <Smiles>
COc1ccc(NC(=O)COc2ccc(Cl)cc2C(=O)c2cc(F)cc(F)c2)cn1

> <IC50_uM>
0.07244

> <pIC50>
7.140021558

> <Activity>
1

$$$$

  SciTegic10102310092D

 26 28  0  0  0  0            999 V2000
    2.5981   -1.5000    0.0000 C   0  0
    1.2990   -0.7500    0.0000 C   0  0
    1.2990    0.7500    0.0000 C   0  0
    0.0000    1.5000    0.0000 C   0  0
    0.0000    3.0008    0.0000 C   0  0
    0.0000    4.5008    0.0000 N   0  0
   -1.2990    0.7500    0.0000 C   0  0
   -1.2990   -0.7500    0.0000 C   0  0
   -2.5981   -1.5000    0.0000 C   0  0
    0.0000   -1.5000    0.0000 C   0  0
    0.0031   -3.0008    0.0000 O   0  0
    1.3039   -3.7494    0.0000 C   0  0
    1.3092   -5.2494    0.0000 C   0  0
    2.6108   -5.9949    0.0000 C   0  0
    3.9073   -5.2404    0.0000 N   0  0
    3.9021   -3.7404    0.0000 C   0  0
    5.1977   -2.9829    0.0000 N   0  0
    5.1903   -1.4820    0.0000 C   0  0
    6.4841   -0.7230    0.0000 C   0  0
    6.4738    0.7770    0.0000 C   0  0
    5.1696    1.5180    0.0000 C   0  0
    5.1592    3.0188    0.0000 C   0  0
    5.1488    4.5187    0.0000 N   0  0
    3.8757    0.7590    0.0000 C   0  0
    3.8861   -0.7410    0.0000 C   0  0
    2.6004   -2.9949    0.0000 N   0  0
  1  2  1  0
  2  3  2  0
  3  4  1  0
  4  5  1  0
  5  6  3  0
  4  7  2  0
  7  8  1  0
  8  9  1  0
  8 10  2  0
 10  2  1  0
 10 11  1  0
 11 12  1  0
 12 13  2  0
 13 14  1  0
 14 15  2  0
 15 16  1  0
 16 17  1  0
 17 18  1  0
 18 19  2  0
 19 20  1  0
 20 21  2  0
 21 22  1  0
 22 23  3  0
 21 24  1  0
 24 25  2  0
 25 18  1  0
 16 26  2  0
 26 12  1  0
M  END
> <Smiles>
Cc1cc(C#N)cc(C)c1Oc1ccnc(Nc2ccc(C#N)cc2)n1

> <IC50_uM>
0.073

> <pIC50>
7.13667714

> <Activity>
1

$$$$

  SciTegic10102310092D

 27 29  0  0  0  0            999 V2000
    3.8983   -0.7459    0.0000 C   0  0
    2.6003   -1.4977    0.0000 O   0  0
    1.2990   -0.7500    0.0000 C   0  0
    1.2990    0.7500    0.0000 C   0  0
    0.0000    1.5000    0.0000 C   0  0
   -1.2990    0.7500    0.0000 C   0  0
   -2.5987    1.5004    0.0000 C   0  0
   -2.6012    3.0004    0.0000 C   0  0
   -3.9015    3.7484    0.0000 C   0  0
   -5.1993    2.9963    0.0000 C   0  0
   -6.5018    3.7420    0.0000 C   0  0
   -6.5068    5.2419    0.0000 O   0  0
   -7.7993    2.9876    0.0000 C   0  0
   -9.1021    3.7310    0.0000 C   0  0
  -10.3974    2.9744    0.0000 C   0  0
  -11.7002    3.7179    0.0000 O   0  0
  -10.3898    1.4745    0.0000 N   0  0
  -11.6850    0.7179    0.0000 O   0  0
   -9.0870    0.7310    0.0000 C   0  0
   -9.0794   -0.7689    0.0000 O   0  0
   -7.7918    1.4876    0.0000 N   0  0
   -5.1969    1.4963    0.0000 C   0  0
   -3.8967    0.7484    0.0000 C   0  0
   -1.2990   -0.7500    0.0000 C   0  0
    0.0000   -1.5000    0.0000 C   0  0
   -0.0031   -3.0008    0.0000 O   0  0
   -1.3032   -3.7490    0.0000 C   0  0
  1  2  1  0
  2  3  1  0
  3  4  2  0
  4  5  1  0
  5  6  2  0
  6  7  1  0
  7  8  2  0
  8  9  1  0
  9 10  2  0
 10 11  1  0
 11 12  2  0
 11 13  1  0
 13 14  2  0
 14 15  1  0
 15 16  2  0
 15 17  1  0
 17 18  1  0
 17 19  1  0
 19 20  2  0
 19 21  1  0
 21 13  1  0
 10 22  1  0
 22 23  2  0
 23  7  1  0
  6 24  1  0
 24 25  2  0
 25  3  1  0
 25 26  1  0
 26 27  1  0
M  END
> <Smiles>
COc1ccc(-c2ccc(C(=O)c3cc(=O)n(O)c(=O)[nH]3)cc2)cc1OC

> <IC50_uM>
0.074

> <pIC50>
7.13076828

> <Activity>
1

$$$$

  SciTegic10102310092D

 38 41  0  0  0  0            999 V2000
    5.1908   -4.5097    0.0000 N   0  0
    3.8933   -3.7570    0.0000 C   0  0
    2.5951   -3.0039    0.0000 C   0  0
    2.5973   -1.5031    0.0000 C   0  0
    1.2990   -0.7500    0.0000 C   0  0
    1.2990    0.7500    0.0000 C   0  0
    0.0000    1.5000    0.0000 C   0  0
    0.0000    3.0000    0.0000 F   0  0
   -1.2990    0.7500    0.0000 C   0  0
   -2.6003    1.4977    0.0000 N   0  0
   -3.8990    0.7455    0.0000 C   0  0
   -5.2007    1.4909    0.0000 N   0  0
   -6.4972    0.7364    0.0000 C   0  0
   -7.8010    1.4796    0.0000 N   0  0
   -9.0971    0.7229    0.0000 C   0  0
  -10.4010    1.4661    0.0000 C   0  0
  -11.6971    0.7093    0.0000 C   0  0
  -13.0009    1.4526    0.0000 N   0  0
  -14.2974    0.6981    0.0000 C   0  0
  -15.5991    1.4436    0.0000 C   0  0
  -15.6043    2.9436    0.0000 O   0  0
  -14.3079    3.6981    0.0000 C   0  0
  -13.0062    2.9526    0.0000 C   0  0
   -6.4920   -0.7636    0.0000 N   0  0
   -5.1903   -1.5091    0.0000 C   0  0
   -5.1821   -3.0099    0.0000 N   0  0
   -3.8787   -3.7540    0.0000 C   0  0
   -3.8682   -5.2539    0.0000 C   0  0
   -2.5640   -5.9949    0.0000 C   0  0
   -1.2702   -5.2360    0.0000 C   0  0
    0.0347   -5.9774    0.0000 C   0  0
    1.3389   -6.7184    0.0000 N   0  0
   -1.2805   -3.7360    0.0000 C   0  0
   -2.5847   -2.9950    0.0000 C   0  0
   -3.8939   -0.7546    0.0000 N   0  0
   -1.2990   -0.7500    0.0000 C   0  0
   -2.5981   -1.5000    0.0000 F   0  0
    0.0000   -1.5000    0.0000 C   0  0
  1  2  3  0
  2  3  1  0
  3  4  2  0
  4  5  1  0
  5  6  2  0
  6  7  1  0
  7  8  1  0
  7  9  2  0
  9 10  1  0
 10 11  1  0
 11 12  2  0
 12 13  1  0
 13 14  1  0
 14 15  1  0
 15 16  1  0
 16 17  1  0
 17 18  1  0
 18 19  1  0
 19 20  1  0
 20 21  1  0
 21 22  1  0
 22 23  1  0
 23 18  1  0
 13 24  2  0
 24 25  1  0
 25 26  1  0
 26 27  1  0
 27 28  2  0
 28 29  1  0
 29 30  2  0
 30 31  1  0
 31 32  3  0
 30 33  1  0
 33 34  2  0
 34 27  1  0
 25 35  2  0
 35 11  1  0
  9 36  1  0
 36 37  1  0
 36 38  2  0
 38  5  1  0
M  END
> <Smiles>
N#C/C=C/c1cc(F)c(Nc2nc(NCCCN3CCOCC3)nc(Nc3ccc(C#N)cc3)n2)c(F)c1

> <IC50_uM>
0.075

> <pIC50>
7.124938737

> <Activity>
1

$$$$

  SciTegic10102310092D

 23 24  0  0  0  0            999 V2000
    3.8912   -5.2570    0.0000 C   0  0
    3.8933   -3.7570    0.0000 C   0  0
    2.5951   -3.0039    0.0000 C   0  0  3  0  0  0
    1.2948   -3.7516    0.0000 C   0  0
    2.5973   -1.5031    0.0000 S   0  0
    1.2990   -0.7500    0.0000 C   0  0
    1.2990    0.7500    0.0000 N   0  0
    0.0000    1.5000    0.0000 C   0  0
    0.0031    3.0008    0.0000 C   0  0  3  0  0  0
   -1.2947    3.7531    0.0000 C   0  0
    1.3039    3.7494    0.0000 C   0  0
    1.3092    5.2494    0.0000 C   0  0
    0.0127    6.0039    0.0000 F   0  0
    2.6108    5.9949    0.0000 C   0  0
    3.9072    5.2405    0.0000 C   0  0
    3.9020    3.7405    0.0000 C   0  0
    2.6004    2.9949    0.0000 C   0  0
    2.5953    1.4950    0.0000 Cl  0  0
   -1.2990    0.7500    0.0000 C   0  0
   -2.5981    1.5000    0.0000 C   0  0
   -1.2990   -0.7500    0.0000 C   0  0
   -2.5981   -1.5000    0.0000 O   0  0
    0.0000   -1.5000    0.0000 N   0  0
  1  2  1  0
  2  3  1  0
  3  4  1  4
  3  5  1  0
  5  6  1  0
  6  7  2  0
  7  8  1  0
  8  9  1  0
  9 10  1  4
  9 11  1  0
 11 12  2  0
 12 13  1  0
 12 14  1  0
 14 15  2  0
 15 16  1  0
 16 17  2  0
 17 11  1  0
 17 18  1  0
  8 19  2  0
 19 20  1  0
 19 21  1  0
 21 22  2  0
 21 23  1  0
 23  6  1  0
M  END
> <Smiles>
CCC(C)Sc1nc(C(C)c2c(F)cccc2Cl)c(C)c(=O)[nH]1

> <IC50_uM>
0.075

> <pIC50>
7.124938737

> <Activity>
1

$$$$

  SciTegic10102310092D

 40 43  0  0  1  0            999 V2000
   11.6934   -3.7531    0.0000 C   0  0
   10.3967   -2.9990    0.0000 C   0  0
    9.5293   -3.4965    0.0000 C   0  0
   10.4005   -1.4981    0.0000 C   0  0
    9.1031   -0.7436    0.0000 N   0  0
    7.8028   -1.4930    0.0000 C   0  0
    7.8007   -2.9938    0.0000 C   0  0  1  0  0  0
    8.6661   -3.4948    0.0000 O   0  0
    6.5003   -3.7432    0.0000 C   0  0  2  0  0  0
    5.1998   -2.9940    0.0000 C   0  0
    3.9003   -3.7449    0.0000 C   0  0
    3.8977   -5.2449    0.0000 C   0  0
    2.5973   -5.9927    0.0000 C   0  0
    1.2996   -5.2404    0.0000 C   0  0
    1.3022   -3.7404    0.0000 C   0  0
    2.6025   -2.9927    0.0000 C   0  0
    6.4982   -5.2440    0.0000 N   0  0
    5.1978   -5.9934    0.0000 C   0  0
    4.3324   -5.4925    0.0000 O   0  0
    5.1957   -7.4943    0.0000 C   0  0
    6.4952   -8.2434    0.0000 C   0  0
    6.4962   -9.7434    0.0000 C   0  0
    7.7957  -10.4926    0.0000 C   0  0
    7.7966  -11.9926    0.0000 C   0  0
    6.4981  -12.7434    0.0000 C   0  0
    5.1986  -11.9943    0.0000 C   0  0
    5.1976  -10.4943    0.0000 C   0  0
    3.8981   -9.7451    0.0000 O   0  0
    3.8972   -8.2451    0.0000 C   0  0
    2.5976   -7.4959    0.0000 O   0  0
    9.1053    0.7572    0.0000 S   0  0
    7.8053    0.0088    0.0000 O   0  0
    7.8071    1.5086    0.0000 O   0  0
   10.4056    1.5066    0.0000 C   0  0
   10.4068    3.0066    0.0000 C   0  0
   11.7064    3.7556    0.0000 C   0  0
   13.0049    3.0045    0.0000 C   0  0
   14.3045    3.7535    0.0000 N   0  0
   13.0037    1.5045    0.0000 C   0  0
   11.7041    0.7556    0.0000 C   0  0
  1  2  1  0
  2  3  1  0
  2  4  1  0
  4  5  1  0
  5  6  1  0
  6  7  1  0
  7  8  1  1
  7  9  1  0
  9 10  1  1
 10 11  1  0
 11 12  2  0
 12 13  1  0
 13 14  2  0
 14 15  1  0
 15 16  2  0
 16 11  1  0
  9 17  1  0
 17 18  1  0
 18 19  2  0
 18 20  1  0
 20 21  2  0
 21 22  1  0
 22 23  2  0
 23 24  1  0
 24 25  2  0
 25 26  1  0
 26 27  2  0
 27 22  1  0
 27 28  1  0
 28 29  1  0
 29 20  1  0
 29 30  2  0
  5 31  1  0
 31 32  2  0
 31 33  2  0
 31 34  1  0
 34 35  2  0
 35 36  1  0
 36 37  2  0
 37 38  1  0
 37 39  1  0
 39 40  2  0
 40 34  1  0
M  END
> <Smiles>
CC(C)CN(C[C@@H](O)[C@H](Cc1ccccc1)NC(=O)c1cc2ccccc2oc1=O)S(=O)(=O)c1ccc(N)cc1

> <IC50_uM>
0.0753

> <pIC50>
7.123205024

> <Activity>
1

$$$$

  SciTegic10102310092D

 32 35  0  0  0  0            999 V2000
    4.0194  -12.2401    0.0000 C   0  0
    2.5195  -12.2293    0.0000 C   0  0
    1.7606  -13.5232    0.0000 C   0  0
    1.7776  -10.9247    0.0000 N   0  0
    0.2768  -10.9139    0.0000 C   0  0
   -0.4798  -12.2092    0.0000 C   0  0
   -1.9798  -12.2016    0.0000 C   0  0
   -2.7232  -10.8987    0.0000 C   0  0
   -1.9666   -9.6035    0.0000 N   0  0
   -0.4666   -9.6110    0.0000 C   0  0
    0.2883   -8.3139    0.0000 N   0  0
    1.7883   -8.3192    0.0000 C   0  0
    2.5428   -7.0227    0.0000 C   0  0
    1.7974   -5.7210    0.0000 N   0  0
    2.5497   -4.4224    0.0000 C   0  0
    4.0497   -4.4250    0.0000 O   0  0
    1.8032   -3.1233    0.0000 C   0  0
    2.4133   -1.7530    0.0000 C   0  0
    1.2990   -0.7500    0.0000 C   0  0
    1.2990    0.7500    0.0000 C   0  0
    0.0000    1.5000    0.0000 C   0  0
   -0.0031    3.0008    0.0000 N   0  0
   -1.3039    3.7494    0.0000 S   0  0
   -2.6017    2.9971    0.0000 C   0  0
   -1.3070    5.2494    0.0000 O   0  0
   -2.6044    4.4969    0.0000 O   0  0
   -1.2990    0.7500    0.0000 C   0  0
   -1.2990   -0.7500    0.0000 C   0  0
    0.0000   -1.5000    0.0000 C   0  0
    0.3114   -2.9665    0.0000 N   0  0
    0.2973   -5.7159    0.0000 C   0  0
   -0.4572   -7.0123    0.0000 C   0  0
  1  2  1  0
  2  3  1  0
  2  4  1  0
  4  5  1  0
  5  6  2  0
  6  7  1  0
  7  8  2  0
  8  9  1  0
  9 10  2  0
 10  5  1  0
 10 11  1  0
 11 12  1  0
 12 13  1  0
 13 14  1  0
 14 15  1  0
 15 16  2  0
 15 17  1  0
 17 18  2  0
 18 19  1  0
 19 20  2  0
 20 21  1  0
 21 22  1  0
 22 23  1  0
 23 24  1  0
 23 25  2  0
 23 26  2  0
 21 27  2  0
 27 28  1  0
 28 29  2  0
 29 19  1  0
 29 30  1  0
 30 17  1  0
 14 31  1  0
 31 32  1  0
 32 11  1  0
M  END
> <Smiles>
CC(C)Nc1cccnc1N1CCN(C(=O)c2cc3cc(NS(C)(=O)=O)ccc3[nH]2)CC1

> <IC50_uM>
0.076

> <pIC50>
7.119186408

> <Activity>
1

$$$$

  SciTegic10102310092D

 26 28  0  0  0  0            999 V2000
    3.8978   -2.2504    0.0000 N   0  0
    2.5988   -1.5004    0.0000 C   0  0
    1.2990   -0.7500    0.0000 C   0  0
    1.2990    0.7500    0.0000 C   0  0
    0.0000    1.5000    0.0000 C   0  0
    0.0000    3.0000    0.0000 Cl  0  0
   -1.2990    0.7500    0.0000 C   0  0
   -1.2990   -0.7500    0.0000 C   0  0
   -2.5972   -1.5031    0.0000 O   0  0
   -2.5951   -3.0039    0.0000 C   0  0
   -1.2935   -3.7495    0.0000 C   0  0
   -1.2883   -5.2495    0.0000 C   0  0
    0.0125   -5.9981    0.0000 C   0  0
    0.0156   -7.4989    0.0000 C   0  0
    1.3164   -8.2475    0.0000 C   0  0
    1.3216   -9.7475    0.0000 C   0  0
    2.6232  -10.4931    0.0000 C   0  0
    3.9197   -9.7386    0.0000 C   0  0
    3.9145   -8.2386    0.0000 C   0  0
    2.6129   -7.4931    0.0000 N   0  0
   -2.5847   -6.0040    0.0000 N   0  0
   -3.8863   -5.2585    0.0000 C   0  0
   -5.1828   -6.0130    0.0000 O   0  0
   -3.8915   -3.7585    0.0000 C   0  0
   -5.1932   -3.0130    0.0000 Cl  0  0
    0.0000   -1.5000    0.0000 C   0  0
  1  2  3  0
  2  3  1  0
  3  4  2  0
  4  5  1  0
  5  6  1  0
  5  7  2  0
  7  8  1  0
  8  9  1  0
  9 10  1  0
 10 11  1  0
 11 12  2  0
 12 13  1  0
 13 14  1  0
 14 15  1  0
 15 16  2  0
 16 17  1  0
 17 18  2  0
 18 19  1  0
 19 20  2  0
 20 15  1  0
 12 21  1  0
 21 22  1  0
 22 23  2  0
 22 24  1  0
 24 10  2  0
 24 25  1  0
  8 26  2  0
 26  3  1  0
M  END
> <Smiles>
N#Cc1cc(Cl)cc(Oc2cc(CCc3ccccn3)[nH]c(=O)c2Cl)c1

> <IC50_uM>
0.078

> <pIC50>
7.107905397

> <Activity>
1

$$$$

  SciTegic10102310092D

 22 23  0  0  0  0            999 V2000
    3.8983   -0.7566    0.0000 C   0  0
    2.5973   -1.5031    0.0000 C   0  0
    1.2990   -0.7500    0.0000 C   0  0
    1.2990    0.7500    0.0000 C   0  0
    2.5981    1.5000    0.0000 C   0  0
    0.0000    1.5000    0.0000 N   0  0
   -1.2990    0.7500    0.0000 C   0  0
   -2.5981    1.5000    0.0000 O   0  0
   -1.2990   -0.7500    0.0000 C   0  0
   -2.5972   -1.5031    0.0000 N   0  0
   -2.5951   -3.0039    0.0000 C   0  0
   -3.8926   -3.7566    0.0000 O   0  0
    0.0000   -1.5000    0.0000 C   0  0
    0.0031   -3.0008    0.0000 C   0  0
    1.3039   -3.7494    0.0000 C   0  0
    1.3092   -5.2494    0.0000 C   0  0
    2.6108   -5.9949    0.0000 C   0  0
    2.6160   -7.4949    0.0000 C   0  0
    3.9073   -5.2404    0.0000 C   0  0
    3.9021   -3.7404    0.0000 C   0  0
    5.1985   -2.9859    0.0000 C   0  0
    2.6004   -2.9949    0.0000 C   0  0
  1  2  1  0
  2  3  1  0
  3  4  2  0
  4  5  1  0
  4  6  1  0
  6  7  1  0
  7  8  2  0
  7  9  1  0
  9 10  1  0
 10 11  1  0
 11 12  2  0
  9 13  2  0
 13  3  1  0
 13 14  1  0
 14 15  1  0
 15 16  2  0
 16 17  1  0
 17 18  1  0
 17 19  2  0
 19 20  1  0
 20 21  1  0
 20 22  2  0
 22 15  1  0
M  END
> <Smiles>
CCc1c(C)[nH]c(=O)c(NC=O)c1Cc1cc(C)cc(C)c1

> <IC50_uM>
0.079

> <pIC50>
7.102372909

> <Activity>
1

$$$$

  SciTegic10102310092D

 28 31  0  0  0  0            999 V2000
   -3.4458   -7.0055    0.0000 N   0  0
   -2.7003   -8.3072    0.0000 C   0  0
   -1.9545   -9.6096    0.0000 C   0  0
   -2.7090  -10.9060    0.0000 C   0  0
   -1.9635  -12.2076    0.0000 C   0  0
   -2.7181  -13.5040    0.0000 Cl  0  0
   -0.4635  -12.2129    0.0000 C   0  0
    0.2911  -10.9165    0.0000 C   0  0
    1.7919  -10.9187    0.0000 O   0  0
    2.5450   -9.6205    0.0000 C   0  0
    1.7951   -8.3214    0.0000 C   0  0
    2.5451   -7.0223    0.0000 C   0  0
    1.7974   -5.7210    0.0000 O   0  0
    2.5497   -4.4224    0.0000 C   0  0
    1.8032   -3.1233    0.0000 C   0  0
    2.4133   -1.7530    0.0000 N   0  0
    1.2990   -0.7500    0.0000 C   0  0
    1.2990    0.7500    0.0000 C   0  0
    0.0000    1.5000    0.0000 C   0  0
   -1.2990    0.7500    0.0000 C   0  0
   -1.2990   -0.7500    0.0000 C   0  0
    0.0000   -1.5000    0.0000 C   0  0
    0.3114   -2.9665    0.0000 S   0  0
    4.0452   -7.0225    0.0000 C   0  0
    4.7951   -8.3215    0.0000 C   0  0
    4.0450   -9.6205    0.0000 C   0  0
    4.7950  -10.9196    0.0000 Cl  0  0
   -0.4545   -9.6148    0.0000 C   0  0
  1  2  3  0
  2  3  1  0
  3  4  2  0
  4  5  1  0
  5  6  1  0
  5  7  2  0
  7  8  1  0
  8  9  1  0
  9 10  1  0
 10 11  2  0
 11 12  1  0
 12 13  1  0
 13 14  1  0
 14 15  1  0
 15 16  2  0
 16 17  1  0
 17 18  2  0
 18 19  1  0
 19 20  2  0
 20 21  1  0
 21 22  2  0
 22 17  1  0
 22 23  1  0
 23 15  1  0
 12 24  2  0
 24 25  1  0
 25 26  2  0
 26 10  1  0
 26 27  1  0
  8 28  2  0
 28  3  1  0
M  END
> <Smiles>
N#Cc1cc(Cl)cc(Oc2cc(OCc3nc4ccccc4s3)ccc2Cl)c1

> <IC50_uM>
0.07924

> <pIC50>
7.101055533

> <Activity>
1

$$$$

  SciTegic10102310092D

 29 30  0  0  0  0            999 V2000
    2.5981   -1.5000    0.0000 C   0  0
    1.2990   -0.7500    0.0000 C   0  0
    1.2990    0.7500    0.0000 C   0  0
    0.0000    1.5000    0.0000 C   0  0
    0.0000    3.0000    0.0000 C   0  0
   -1.2990    0.7500    0.0000 C   0  0
   -2.6003    1.4977    0.0000 N   0  0
   -2.6030    2.9977    0.0000 C   0  0
   -3.8990    0.7455    0.0000 C   0  0
   -3.8964   -0.7545    0.0000 O   0  0
   -5.2003    1.4932    0.0000 S   0  0
   -6.4990    0.7409    0.0000 C   0  0
   -7.8003    1.4887    0.0000 C   0  0
   -7.8029    2.9887    0.0000 O   0  0
   -9.0990    0.7364    0.0000 N   0  0
  -10.4003    1.4841    0.0000 C   0  0
  -10.4004    2.9842    0.0000 C   0  0
  -11.6995    3.7341    0.0000 C   0  0
  -12.9985    2.9841    0.0000 C   0  0
  -14.2982    3.7345    0.0000 S   0  0
  -15.5970    2.9840    0.0000 N   0  0
  -14.2992    5.2345    0.0000 O   0  0
  -15.5977    4.4838    0.0000 O   0  0
  -12.9984    1.4841    0.0000 C   0  0
  -11.6994    0.7341    0.0000 C   0  0
  -11.6994   -0.7659    0.0000 Cl  0  0
   -1.2990   -0.7500    0.0000 C   0  0
   -2.5981   -1.5000    0.0000 C   0  0
    0.0000   -1.5000    0.0000 C   0  0
  1  2  1  0
  2  3  2  0
  3  4  1  0
  4  5  1  0
  4  6  2  0
  6  7  1  0
  7  8  1  0
  7  9  1  0
  9 10  2  0
  9 11  1  0
 11 12  1  0
 12 13  1  0
 13 14  2  0
 13 15  1  0
 15 16  1  0
 16 17  2  0
 17 18  1  0
 18 19  2  0
 19 20  1  0
 20 21  1  0
 20 22  2  0
 20 23  2  0
 19 24  1  0
 24 25  2  0
 25 16  1  0
 25 26  1  0
  6 27  1  0
 27 28  1  0
 27 29  2  0
 29  2  1  0
M  END
> <Smiles>
Cc1cc(C)c(N(C)C(=O)SCC(=O)Nc2ccc(S(N)(=O)=O)cc2Cl)c(C)c1

> <IC50_uM>
0.08

> <pIC50>
7.096910013

> <Activity>
1

$$$$

  SciTegic10102310092D

 25 27  0  0  0  0            999 V2000
    1.1583   -9.7884    0.0000 C   0  0
    0.6960   -8.3614    0.0000 C   0  0
   -0.7710   -8.0483    0.0000 C   0  0
   -1.7756   -9.1622    0.0000 C   0  0
   -1.2333   -6.6213    0.0000 C   0  0
   -2.7003   -6.3082    0.0000 C   0  0
   -0.2287   -5.5075    0.0000 C   0  0
   -0.6913   -4.0797    0.0000 S   0  0
   -2.1584   -3.7671    0.0000 O   0  0
   -1.6957   -5.1937    0.0000 O   0  0
    0.3114   -2.9665    0.0000 N   0  0
    1.8032   -3.1233    0.0000 C   0  0
    2.3032   -3.9893    0.0000 O   0  0
    2.4133   -1.7530    0.0000 N   0  0
    1.2990   -0.7500    0.0000 C   0  0
    1.2990    0.7500    0.0000 C   0  0
    0.0000    1.5000    0.0000 C   0  0
   -1.2990    0.7500    0.0000 C   0  0
   -2.5981    1.5000    0.0000 Cl  0  0
   -1.2990   -0.7500    0.0000 C   0  0
    0.0000   -1.5000    0.0000 C   0  0
    1.2383   -5.8206    0.0000 C   0  0
    1.9080   -5.0780    0.0000 C   0  0
    1.7006   -7.2475    0.0000 C   0  0
    3.1676   -7.5606    0.0000 C   0  0
  1  2  1  0
  2  3  2  0
  3  4  1  0
  3  5  1  0
  5  6  1  0
  5  7  2  0
  7  8  1  0
  8  9  2  0
  8 10  2  0
  8 11  1  0
 11 12  1  0
 12 13  2  0
 12 14  1  0
 14 15  1  0
 15 16  2  0
 16 17  1  0
 17 18  2  0
 18 19  1  0
 18 20  1  0
 20 21  2  0
 21 15  1  0
 21 11  1  0
  7 22  1  0
 22 23  1  0
 22 24  2  0
 24  2  1  0
 24 25  1  0
M  END
> <Smiles>
Cc1c(C)c(C)c(S(=O)(=O)n2c(=O)[nH]c3ccc(Cl)cc32)c(C)c1C

> <IC50_uM>
0.08

> <pIC50>
7.096910013

> <Activity>
1

$$$$

  SciTegic10102310092D

 40 44  0  0  0  0            999 V2000
    5.1978   -4.5012    0.0000 C   0  0
    5.1983   -3.0012    0.0000 C   0  0
    3.8991   -3.7510    0.0000 C   0  0
    3.8985   -2.2508    0.0000 C   0  0
    2.5988   -1.5004    0.0000 C   0  0
    1.2990   -0.7500    0.0000 C   0  0
    1.2990    0.7500    0.0000 C   0  0
    0.0000    1.5000    0.0000 C   0  0
   -1.2990    0.7500    0.0000 C   0  0
   -2.5973    1.5031    0.0000 N   0  0
   -2.5951    3.0039    0.0000 C   0  0
   -1.2948    3.7516    0.0000 O   0  0
   -3.8933    3.7570    0.0000 C   0  0
   -3.8912    5.2578    0.0000 S   0  0
   -5.1894    6.0109    0.0000 C   0  0
   -6.5408    5.3898    0.0000 N   0  0
   -7.5445    6.5046    0.0000 N   0  0
   -6.7945    7.8036    0.0000 N   0  0
   -5.3273    7.4917    0.0000 N   0  0
   -4.2061    8.4893    0.0000 C   0  0
   -4.6302    9.9300    0.0000 C   0  0
   -3.5923   11.0129    0.0000 C   0  0
   -2.1355   10.6554    0.0000 C   0  0
   -1.0970   11.7388    0.0000 C   0  0
   -0.8006   13.1292    0.0000 C   0  0
    0.2807   12.0895    0.0000 C   0  0
   -1.7166    9.2151    0.0000 C   0  0
   -2.7546    8.1322    0.0000 C   0  0
   -2.3362    6.6917    0.0000 Cl  0  0
   -1.2990   -0.7500    0.0000 C   0  0
   -2.5981   -1.5000    0.0000 Cl  0  0
    0.0000   -1.5000    0.0000 C   0  0
    6.4985   -2.2516    0.0000 O   0  0
    7.7983   -3.0020    0.0000 C   0  0
    9.0985   -2.2525    0.0000 C   0  0
   10.3983   -3.0029    0.0000 N   0  0
   11.7509   -2.3846    0.0000 C   0  0
   12.7523   -3.5014    0.0000 C   0  0
   11.9997   -4.7989    0.0000 C   0  0
   10.5331   -4.4840    0.0000 C   0  0
  1  2  1  0
  2  3  1  0
  2  4  1  0
  4  5  3  0
  5  6  1  0
  6  7  2  0
  7  8  1  0
  8  9  2  0
  9 10  1  0
 10 11  1  0
 11 12  2  0
 11 13  1  0
 13 14  1  0
 14 15  1  0
 15 16  2  0
 16 17  1  0
 17 18  2  0
 18 19  1  0
 19 15  1  0
 19 20  1  0
 20 21  2  0
 21 22  1  0
 22 23  2  0
 23 24  1  0
 24 25  1  0
 25 26  1  0
 26 24  1  0
 23 27  1  0
 27 28  2  0
 28 20  1  0
 28 29  1  0
  9 30  1  0
 30 31  1  0
 30 32  2  0
 32  6  1  0
  2 33  1  0
 33 34  1  0
 34 35  1  0
 35 36  1  0
 36 37  1  0
 37 38  1  0
 38 39  1  0
 39 40  1  0
 40 36  1  0
M  END
> <Smiles>
CC(C)(C#Cc1ccc(NC(=O)CSc2nnnn2-c2ccc(C3CC3)cc2Cl)c(Cl)c1)OCCN1CCCC1

> <IC50_uM>
0.08

> <pIC50>
7.096910013

> <Activity>
1

$$$$

  SciTegic10102310092D

 36 39  0  0  0  0            999 V2000
    2.5981   -1.5000    0.0000 C   0  0
    1.2990   -0.7500    0.0000 C   0  0
    1.2990    0.7500    0.0000 C   0  0
    0.0000    1.5000    0.0000 C   0  0
    0.0000    3.0008    0.0000 C   0  0
    0.0000    4.5008    0.0000 N   0  0
   -1.2990    0.7500    0.0000 C   0  0
   -1.2990   -0.7500    0.0000 C   0  0
   -2.5981   -1.5000    0.0000 C   0  0
    0.0000   -1.5000    0.0000 C   0  0
    0.0031   -3.0008    0.0000 O   0  0
    1.3039   -3.7494    0.0000 C   0  0
    1.3092   -5.2494    0.0000 C   0  0
    2.6108   -5.9949    0.0000 C   0  0
    2.6160   -7.4949    0.0000 Cl  0  0
    3.9073   -5.2404    0.0000 N   0  0
    3.9021   -3.7404    0.0000 C   0  0
    5.1977   -2.9829    0.0000 N   0  0
    5.1903   -1.4820    0.0000 C   0  0
    6.4841   -0.7230    0.0000 C   0  0
    6.4738    0.7770    0.0000 C   0  0
    5.1696    1.5180    0.0000 N   0  0
    5.1561    3.0188    0.0000 C   0  0
    3.8501    3.7583    0.0000 C   0  0
    3.8345    5.2582    0.0000 C   0  0
    2.5277    5.9947    0.0000 C   0  0
    1.2365    5.2313    0.0000 C   0  0
   -0.0709    5.9682    0.0000 S   0  0
   -1.3619    5.2043    0.0000 C   0  0
   -0.0874    7.4681    0.0000 O   0  0
   -1.3780    6.7040    0.0000 O   0  0
    1.2521    3.7314    0.0000 C   0  0
    2.5588    2.9949    0.0000 C   0  0
    3.8757    0.7590    0.0000 C   0  0
    3.8861   -0.7410    0.0000 C   0  0
    2.6004   -2.9949    0.0000 C   0  0
  1  2  1  0
  2  3  2  0
  3  4  1  0
  4  5  1  0
  5  6  3  0
  4  7  2  0
  7  8  1  0
  8  9  1  0
  8 10  2  0
 10  2  1  0
 10 11  1  0
 11 12  1  0
 12 13  2  0
 13 14  1  0
 14 15  1  0
 14 16  2  0
 16 17  1  0
 17 18  1  0
 18 19  1  0
 19 20  1  0
 20 21  1  0
 21 22  1  0
 22 23  1  0
 23 24  1  0
 24 25  2  0
 25 26  1  0
 26 27  2  0
 27 28  1  0
 28 29  1  0
 28 30  2  0
 28 31  2  0
 27 32  1  0
 32 33  2  0
 33 24  1  0
 22 34  1  0
 34 35  1  0
 35 19  1  0
 17 36  2  0
 36 12  1  0
M  END
> <Smiles>
Cc1cc(C#N)cc(C)c1Oc1cc(Cl)nc(NC2CCN(Cc3ccc(S(C)(=O)=O)cc3)CC2)c1

> <IC50_uM>
0.08

> <pIC50>
7.096910013

> <Activity>
1

$$$$

  SciTegic10102310092D

 32 35  0  0  1  0            999 V2000
    3.1676   -7.5606    0.0000 C   0  0
    1.7006   -7.2475    0.0000 C   0  0
    0.6960   -8.3614    0.0000 C   0  0
   -0.7710   -8.0483    0.0000 C   0  0
   -1.7756   -9.1622    0.0000 C   0  0
   -1.2333   -6.6213    0.0000 C   0  0
   -0.2287   -5.5075    0.0000 C   0  0
   -0.6913   -4.0797    0.0000 S   0  0
   -2.1584   -3.7671    0.0000 O   0  0
   -1.6957   -5.1937    0.0000 O   0  0
    0.3114   -2.9665    0.0000 C   0  0
    1.8032   -3.1233    0.0000 C   0  0
    2.5551   -4.4192    0.0000 C   0  0
    1.8074   -5.7196    0.0000 O   0  0
    4.0559   -4.4171    0.0000 N   0  0
    4.8090   -5.7153    0.0000 C   0  0  1  0  0  0
    4.0613   -7.0156    0.0000 C   0  0
    6.3098   -5.7131    0.0000 C   0  0
    7.0644   -7.0095    0.0000 C   0  0
    8.5644   -7.0043    0.0000 C   0  0
    9.3099   -5.7026    0.0000 C   0  0
    8.5554   -4.4062    0.0000 C   0  0
    7.0554   -4.4114    0.0000 C   0  0
    2.4133   -1.7530    0.0000 N   0  0
    1.2990   -0.7500    0.0000 C   0  0
    1.2990    0.7500    0.0000 C   0  0
    0.0000    1.5000    0.0000 C   0  0
   -1.2990    0.7500    0.0000 C   0  0
   -2.5981    1.5000    0.0000 Cl  0  0
   -1.2990   -0.7500    0.0000 C   0  0
    0.0000   -1.5000    0.0000 C   0  0
    1.2383   -5.8206    0.0000 C   0  0
  1  2  1  0
  2  3  2  0
  3  4  1  0
  4  5  1  0
  4  6  2  0
  6  7  1  0
  7  8  1  0
  8  9  2  0
  8 10  2  0
  8 11  1  0
 11 12  2  0
 12 13  1  0
 13 14  2  0
 13 15  1  0
 15 16  1  0
 16 17  1  6
 16 18  1  0
 18 19  2  0
 19 20  1  0
 20 21  2  0
 21 22  1  0
 22 23  2  0
 23 18  1  0
 12 24  1  0
 24 25  1  0
 25 26  2  0
 26 27  1  0
 27 28  2  0
 28 29  1  0
 28 30  1  0
 30 31  2  0
 31 11  1  0
 31 25  1  0
  7 32  2  0
 32  2  1  0
M  END
> <Smiles>
Cc1cc(C)cc(S(=O)(=O)c2c(C(=O)N[C@@H](C)c3ccccc3)[nH]c3ccc(Cl)cc23)c1

> <IC50_uM>
0.08

> <pIC50>
7.096910013

> <Activity>
1

$$$$

  SciTegic10102310092D

 23 24  0  0  0  0            999 V2000
    3.9075   -3.7444    0.0000 C   0  0
    2.6060   -2.9986    0.0000 O   0  0
    2.6003   -1.4977    0.0000 C   0  0  3  0  0  0
    1.2990   -0.7500    0.0000 C   0  0
    1.2990    0.7500    0.0000 N   0  0
    0.0000    1.5000    0.0000 C   0  0
   -0.0031    3.0008    0.0000 S   0  0
   -1.3039    3.7494    0.0000 C   0  0
   -1.3070    5.2494    0.0000 C   0  0
   -2.6017    2.9971    0.0000 C   0  0
   -1.2990    0.7500    0.0000 N   0  0
   -1.2990   -0.7500    0.0000 C   0  0
   -2.5981   -1.5000    0.0000 O   0  0
    0.0000   -1.5000    0.0000 C   0  0
    0.0000   -3.0000    0.0000 C   0  0
    3.8990   -0.7455    0.0000 C   0  0
    5.2007   -1.4909    0.0000 C   0  0
    5.2060   -2.9909    0.0000 F   0  0
    6.4972   -0.7364    0.0000 C   0  0
    6.4920    0.7636    0.0000 C   0  0
    5.1903    1.5091    0.0000 C   0  0
    3.8939    0.7546    0.0000 C   0  0
    2.5923    1.5001    0.0000 Cl  0  0
  1  2  1  0
  3  2  1  4
  3  4  1  0
  4  5  1  0
  5  6  2  0
  6  7  1  0
  7  8  1  0
  8  9  1  0
  8 10  1  0
  6 11  1  0
 11 12  1  0
 12 13  2  0
 12 14  1  0
 14  4  2  0
 14 15  1  0
  3 16  1  0
 16 17  2  0
 17 18  1  0
 17 19  1  0
 19 20  2  0
 20 21  1  0
 21 22  2  0
 22 16  1  0
 22 23  1  0
M  END
> <Smiles>
COC(c1nc(SC(C)C)[nH]c(=O)c1C)c1c(F)cccc1Cl

> <IC50_uM>
0.081

> <pIC50>
7.091514981

> <Activity>
1

$$$$

  SciTegic10102310092D

 21 22  0  0  0  0            999 V2000
    3.8976   -0.7553    0.0000 O   0  0
    2.5973   -1.5031    0.0000 C   0  0
    1.2990   -0.7500    0.0000 C   0  0
    1.2990    0.7500    0.0000 C   0  0
    0.0000    1.5000    0.0000 C   0  0
   -1.2990    0.7500    0.0000 C   0  0
   -2.5988    1.5004    0.0000 C   0  0
   -2.5998    3.0004    0.0000 F   0  0
   -3.8976    0.7500    0.0000 F   0  0
   -3.8982    2.2498    0.0000 F   0  0
   -1.2990   -0.7500    0.0000 C   0  0
    0.0000   -1.5000    0.0000 C   0  0
    2.5951   -3.0039    0.0000 C   0  0
    3.8915   -3.7585    0.0000 C   0  0
    3.8864   -5.2585    0.0000 C   0  0
    5.1828   -6.0130    0.0000 O   0  0
    2.5847   -6.0040    0.0000 N   0  0
    2.5795   -7.5040    0.0000 O   0  0
    1.2883   -5.2495    0.0000 C   0  0
   -0.0133   -5.9950    0.0000 O   0  0
    1.2935   -3.7495    0.0000 N   0  0
  1  2  2  0
  2  3  1  0
  3  4  2  0
  4  5  1  0
  5  6  2  0
  6  7  1  0
  7  8  1  0
  7  9  1  0
  7 10  1  0
  6 11  1  0
 11 12  2  0
 12  3  1  0
  2 13  1  0
 13 14  2  0
 14 15  1  0
 15 16  2  0
 15 17  1  0
 17 18  1  0
 17 19  1  0
 19 20  2  0
 19 21  1  0
 21 13  1  0
M  END
> <Smiles>
O=C(c1ccc(C(F)(F)F)cc1)c1cc(=O)n(O)c(=O)[nH]1

> <IC50_uM>
0.081

> <pIC50>
7.091514981

> <Activity>
1

$$$$

  SciTegic10102310092D

 33 36  0  0  0  0            999 V2000
    2.5951   -3.0031    0.0000 C   0  0
    2.5973   -1.5031    0.0000 O   0  0
    1.2990   -0.7500    0.0000 C   0  0
    1.2990    0.7500    0.0000 C   0  0
    0.0000    1.5000    0.0000 C   0  0
   -0.0031    3.0008    0.0000 O   0  0
   -1.3039    3.7494    0.0000 C   0  0
   -1.3092    5.2494    0.0000 C   0  0
   -0.0128    6.0039    0.0000 C   0  0
   -2.6108    5.9949    0.0000 C   0  0
   -3.9073    5.2404    0.0000 C   0  0
   -5.2096    5.9863    0.0000 C   0  0
   -6.5112    6.7318    0.0000 N   0  0
   -3.9021    3.7404    0.0000 C   0  0
   -2.6005    2.9949    0.0000 C   0  0
   -2.5953    1.4949    0.0000 C   0  0
   -1.2990    0.7500    0.0000 C   0  0
   -1.2990   -0.7500    0.0000 C   0  0
   -2.5972   -1.5031    0.0000 N   0  0
   -2.5951   -3.0039    0.0000 C   0  0
   -3.8915   -3.7585    0.0000 C   0  0
   -3.8863   -5.2585    0.0000 C   0  0
   -2.5847   -6.0040    0.0000 N   0  0
   -2.5764   -7.5048    0.0000 C   0  0
   -1.2730   -8.2489    0.0000 C   0  0
   -1.2625   -9.7489    0.0000 C   0  0
    0.0417  -10.4898    0.0000 C   0  0
    1.3355   -9.7309    0.0000 N   0  0
    1.3251   -8.2309    0.0000 C   0  0
    0.0209   -7.4899    0.0000 C   0  0
   -1.2883   -5.2495    0.0000 C   0  0
   -1.2935   -3.7495    0.0000 C   0  0
    0.0000   -1.5000    0.0000 N   0  0
  1  2  1  0
  2  3  1  0
  3  4  2  0
  4  5  1  0
  5  6  1  0
  6  7  1  0
  7  8  2  0
  8  9  1  0
  8 10  1  0
 10 11  2  0
 11 12  1  0
 12 13  3  0
 11 14  1  0
 14 15  2  0
 15  7  1  0
 15 16  1  0
  5 17  2  0
 17 18  1  0
 18 19  1  0
 19 20  1  0
 20 21  1  0
 21 22  1  0
 22 23  1  0
 23 24  1  0
 24 25  1  0
 25 26  2  0
 26 27  1  0
 27 28  2  0
 28 29  1  0
 29 30  2  0
 30 25  1  0
 23 31  1  0
 31 32  1  0
 32 20  1  0
 18 33  2  0
 33  3  1  0
M  END
> <Smiles>
COc1cc(Oc2c(C)cc(C#N)cc2C)cc(NC2CCN(Cc3ccncc3)CC2)n1

> <IC50_uM>
0.081

> <pIC50>
7.091514981

> <Activity>
1

$$$$

  SciTegic10102310092D

 33 37  0  0  0  0            999 V2000
    2.5923    1.5001    0.0000 C   0  0
    3.8939    0.7546    0.0000 C   0  0
    5.1903    1.5091    0.0000 C   0  0
    6.4920    0.7636    0.0000 C   0  0
    7.7891    1.5185    0.0000 C   0  0
    9.0856    2.2729    0.0000 N   0  0
    6.4972   -0.7364    0.0000 C   0  0
    5.2007   -1.4909    0.0000 C   0  0
    5.2059   -2.9909    0.0000 C   0  0
    3.8990   -0.7455    0.0000 C   0  0
    2.6003   -1.4977    0.0000 O   0  0
    1.2990   -0.7500    0.0000 C   0  0
    1.2990    0.7500    0.0000 N   0  0
    0.0000    1.5000    0.0000 C   0  0
   -0.0031    3.0008    0.0000 N   0  0
   -1.3039    3.7494    0.0000 C   0  0
   -1.3092    5.2494    0.0000 C   0  0
   -2.6108    5.9949    0.0000 C   0  0
   -3.9073    5.2404    0.0000 N   0  0
   -5.2112    5.9836    0.0000 C   0  0
   -6.5072    5.2269    0.0000 C   0  0
   -7.8629    5.8385    0.0000 C   0  0
   -8.8588    4.7169    0.0000 C   0  0
   -8.0998    3.4230    0.0000 C   0  0
   -6.6348    3.7451    0.0000 O   0  0
   -3.9021    3.7404    0.0000 C   0  0
   -2.6005    2.9949    0.0000 C   0  0
   -1.2990    0.7500    0.0000 N   0  0
   -1.2990   -0.7500    0.0000 C   0  0
   -2.4133   -1.7530    0.0000 C   0  0
   -1.8032   -3.1233    0.0000 C   0  0
   -0.3114   -2.9665    0.0000 S   0  0
    0.0000   -1.5000    0.0000 C   0  0
  1  2  1  0
  2  3  2  0
  3  4  1  0
  4  5  1  0
  5  6  3  0
  4  7  2  0
  7  8  1  0
  8  9  1  0
  8 10  2  0
 10  2  1  0
 10 11  1  0
 11 12  1  0
 12 13  2  0
 13 14  1  0
 14 15  1  0
 15 16  1  0
 16 17  1  0
 17 18  1  0
 18 19  1  0
 19 20  1  0
 20 21  1  0
 21 22  2  0
 22 23  1  0
 23 24  2  0
 24 25  1  0
 25 21  1  0
 19 26  1  0
 26 27  1  0
 27 16  1  0
 14 28  2  0
 28 29  1  0
 29 30  1  0
 30 31  2  0
 31 32  1  0
 32 33  1  0
 33 12  1  0
 33 29  2  0
M  END
> <Smiles>
Cc1cc(C#N)cc(C)c1Oc1nc(NC2CCN(Cc3ccco3)CC2)nc2ccsc12

> <IC50_uM>
0.082

> <pIC50>
7.086186148

> <Activity>
1

$$$$

  SciTegic10102310092D

 31 34  0  0  0  0            999 V2000
    2.5981   -1.5000    0.0000 C   0  0
    1.2990   -0.7500    0.0000 C   0  0
    1.2990    0.7500    0.0000 C   0  0
    0.0000    1.5000    0.0000 C   0  0
    0.0000    3.0000    0.0000 C   0  0
   -1.2990    0.7500    0.0000 C   0  0
   -2.6003    1.4977    0.0000 O   0  0
   -3.8990    0.7455    0.0000 C   0  0
   -5.2007    1.4909    0.0000 C   0  0
   -6.4972    0.7364    0.0000 C   0  0
   -7.7988    1.4819    0.0000 Cl  0  0
   -6.4920   -0.7636    0.0000 N   0  0
   -5.1903   -1.5091    0.0000 C   0  0
   -5.1821   -3.0099    0.0000 N   0  0
   -3.8787   -3.7540    0.0000 C   0  0
   -3.8682   -5.2539    0.0000 C   0  0
   -2.5640   -5.9949    0.0000 C   0  0
   -1.2702   -5.2360    0.0000 N   0  0
    0.0363   -5.9747    0.0000 C   0  0
    1.3297   -5.2135    0.0000 C   0  0
    2.6365   -5.9499    0.0000 C   0  0
    3.9277   -5.1864    0.0000 C   0  0
    3.9122   -3.6865    0.0000 N   0  0
    2.6054   -2.9500    0.0000 C   0  0
    1.3142   -3.7135    0.0000 C   0  0
   -1.2805   -3.7360    0.0000 C   0  0
   -2.5847   -2.9950    0.0000 C   0  0
   -3.8939   -0.7546    0.0000 C   0  0
   -1.2990   -0.7500    0.0000 C   0  0
   -2.5981   -1.5000    0.0000 C   0  0
    0.0000   -1.5000    0.0000 C   0  0
  1  2  1  0
  2  3  2  0
  3  4  1  0
  4  5  1  0
  4  6  2  0
  6  7  1  0
  7  8  1  0
  8  9  2  0
  9 10  1  0
 10 11  1  0
 10 12  2  0
 12 13  1  0
 13 14  1  0
 14 15  1  0
 15 16  1  0
 16 17  1  0
 17 18  1  0
 18 19  1  0
 19 20  1  0
 20 21  2  0
 21 22  1  0
 22 23  2  0
 23 24  1  0
 24 25  2  0
 25 20  1  0
 18 26  1  0
 26 27  1  0
 27 15  1  0
 13 28  2  0
 28  8  1  0
  6 29  1  0
 29 30  1  0
 29 31  2  0
 31  2  1  0
M  END
> <Smiles>
Cc1cc(C)c(Oc2cc(Cl)nc(NC3CCN(Cc4ccncc4)CC3)c2)c(C)c1

> <IC50_uM>
0.082

> <pIC50>
7.086186148

> <Activity>
1

$$$$

  SciTegic10102310092D

 25 27  0  0  0  0            999 V2000
    2.5951   -3.0031    0.0000 C   0  0
    2.5973   -1.5031    0.0000 O   0  0
    1.2990   -0.7500    0.0000 C   0  0
    1.2990    0.7500    0.0000 C   0  0
    0.0000    1.5000    0.0000 C   0  0
   -1.2990    0.7500    0.0000 C   0  0
   -2.6003    1.4977    0.0000 C   0  0
   -3.8990    0.7455    0.0000 N   0  0
   -5.2003    1.4932    0.0000 C   0  0
   -6.4994    0.7432    0.0000 C   0  0
   -7.7985    1.4932    0.0000 C   0  0
   -7.7985    2.9932    0.0000 N   0  0
   -6.4995    3.7432    0.0000 C   0  0
   -6.4965    5.2441    0.0000 N   0  0
   -5.1957    5.9927    0.0000 C   0  0
   -5.1904    7.4927    0.0000 C   0  0
   -3.8888    8.2382    0.0000 C   0  0
   -2.5924    7.4838    0.0000 C   0  0
   -1.2900    8.2297    0.0000 C   0  0
    0.0116    8.9753    0.0000 N   0  0
   -2.5975    5.9838    0.0000 C   0  0
   -3.8991    5.2382    0.0000 C   0  0
   -5.2004    2.9933    0.0000 N   0  0
   -1.2990   -0.7500    0.0000 C   0  0
    0.0000   -1.5000    0.0000 C   0  0
  1  2  1  0
  2  3  1  0
  3  4  2  0
  4  5  1  0
  5  6  2  0
  6  7  1  0
  7  8  1  0
  8  9  1  0
  9 10  2  0
 10 11  1  0
 11 12  2  0
 12 13  1  0
 13 14  1  0
 14 15  1  0
 15 16  2  0
 16 17  1  0
 17 18  2  0
 18 19  1  0
 19 20  3  0
 18 21  1  0
 21 22  2  0
 22 15  1  0
 13 23  2  0
 23  9  1  0
  6 24  1  0
 24 25  2  0
 25  3  1  0
M  END
> <Smiles>
COc1ccc(CNc2ccnc(Nc3ccc(C#N)cc3)n2)cc1

> <IC50_uM>
0.085

> <pIC50>
7.070581074

> <Activity>
1

$$$$

  SciTegic10102310092D

 30 32  0  0  0  0            999 V2000
    2.5981   -1.5000    0.0000 O   0  0
    1.2990   -0.7500    0.0000 C   0  0
    1.2990    0.7500    0.0000 C   0  0
    0.0000    1.5000    0.0000 C   0  0
   -0.0031    3.0008    0.0000 C   0  0
   -1.3039    3.7494    0.0000 C   0  0
   -1.3092    5.2494    0.0000 C   0  0
   -2.6108    5.9949    0.0000 C   0  0
   -3.9073    5.2404    0.0000 C   0  0
   -5.2096    5.9863    0.0000 C   0  0
   -6.5049    5.2298    0.0000 C   0  0
   -7.8077    5.9732    0.0000 C   0  0
   -7.8153    7.4732    0.0000 C   0  0
   -9.1188    8.2170    0.0000 C   0  0
  -10.4145    7.4613    0.0000 F   0  0
   -9.1259    9.7170    0.0000 F   0  0
  -10.4212    8.9611    0.0000 F   0  0
   -6.5200    8.2297    0.0000 C   0  0
   -5.2172    7.4863    0.0000 C   0  0
   -3.9213    8.2433    0.0000 C   0  0
   -3.9280    9.7433    0.0000 F   0  0
   -2.6187    7.4995    0.0000 F   0  0
   -2.6257    8.9993    0.0000 F   0  0
   -3.9021    3.7404    0.0000 C   0  0
   -2.6005    2.9949    0.0000 C   0  0
   -1.2990    0.7500    0.0000 N   0  0
   -1.2990   -0.7500    0.0000 C   0  0
   -2.5981   -1.5000    0.0000 O   0  0
    0.0000   -1.5000    0.0000 N   0  0
    0.0000   -3.0000    0.0000 O   0  0
  1  2  2  0
  2  3  1  0
  3  4  2  0
  4  5  1  0
  5  6  1  0
  6  7  2  0
  7  8  1  0
  8  9  2  0
  9 10  1  0
 10 11  2  0
 11 12  1  0
 12 13  2  0
 13 14  1  0
 14 15  1  0
 14 16  1  0
 14 17  1  0
 13 18  1  0
 18 19  2  0
 19 10  1  0
 19 20  1  0
 20 21  1  0
 20 22  1  0
 20 23  1  0
  9 24  1  0
 24 25  2  0
 25  6  1  0
  4 26  1  0
 26 27  1  0
 27 28  2  0
 27 29  1  0
 29  2  1  0
 29 30  1  0
M  END
> <Smiles>
O=c1cc(Cc2ccc(-c3ccc(C(F)(F)F)cc3C(F)(F)F)cc2)[nH]c(=O)n1O

> <IC50_uM>
0.085

> <pIC50>
7.070581074

> <Activity>
1

$$$$

  SciTegic10102310092D

 18 19  0  0  0  0            999 V2000
    3.8976   -0.7553    0.0000 O   0  0
    2.5973   -1.5031    0.0000 C   0  0
    1.2990   -0.7500    0.0000 C   0  0
    1.2990    0.7500    0.0000 C   0  0
    0.0000    1.5000    0.0000 C   0  0
   -1.2990    0.7500    0.0000 C   0  0
   -2.5981    1.5000    0.0000 F   0  0
   -1.2990   -0.7500    0.0000 C   0  0
    0.0000   -1.5000    0.0000 C   0  0
    2.5951   -3.0039    0.0000 C   0  0
    3.8915   -3.7585    0.0000 C   0  0
    3.8864   -5.2585    0.0000 C   0  0
    5.1828   -6.0130    0.0000 O   0  0
    2.5847   -6.0040    0.0000 N   0  0
    2.5795   -7.5040    0.0000 O   0  0
    1.2883   -5.2495    0.0000 C   0  0
   -0.0133   -5.9950    0.0000 O   0  0
    1.2935   -3.7495    0.0000 N   0  0
  1  2  2  0
  2  3  1  0
  3  4  2  0
  4  5  1  0
  5  6  2  0
  6  7  1  0
  6  8  1  0
  8  9  2  0
  9  3  1  0
  2 10  1  0
 10 11  2  0
 11 12  1  0
 12 13  2  0
 12 14  1  0
 14 15  1  0
 14 16  1  0
 16 17  2  0
 16 18  1  0
 18 10  1  0
M  END
> <Smiles>
O=C(c1ccc(F)cc1)c1cc(=O)n(O)c(=O)[nH]1

> <IC50_uM>
0.085

> <pIC50>
7.070581074

> <Activity>
1

$$$$

  SciTegic10102310092D

 41 45  0  0  0  0            999 V2000
   -6.5345   -9.6863    0.0000 C   0  0
   -5.2417  -10.4471    0.0000 C   0  0
   -3.9353   -9.7084    0.0000 O   0  0
   -2.6419  -10.4696    0.0000 C   0  0
   -2.6548  -11.9696    0.0000 O   0  0
   -1.3354   -9.7309    0.0000 C   0  0
   -0.0416  -10.4898    0.0000 C   0  0
    1.2626   -9.7488    0.0000 C   0  0
    1.2731   -8.2489    0.0000 C   0  0
    2.5765   -7.5048    0.0000 C   0  0
    2.5847   -6.0040    0.0000 N   0  0
    3.8864   -5.2585    0.0000 C   0  0
    3.8915   -3.7585    0.0000 C   0  0
    2.5951   -3.0039    0.0000 C   0  0
    2.5973   -1.5031    0.0000 N   0  0
    1.2990   -0.7500    0.0000 C   0  0
    1.2990    0.7500    0.0000 N   0  0
    0.0000    1.5000    0.0000 C   0  0
    0.0031    3.0008    0.0000 O   0  0
    1.3039    3.7494    0.0000 C   0  0
    1.3092    5.2494    0.0000 C   0  0
    0.0127    6.0039    0.0000 C   0  0
    2.6108    5.9949    0.0000 C   0  0
    3.9072    5.2405    0.0000 C   0  0
    5.2111    5.9837    0.0000 C   0  0
    6.5072    5.2270    0.0000 C   0  0
    7.8110    5.9702    0.0000 C   0  0
    9.1142    6.7130    0.0000 N   0  0
    3.9020    3.7405    0.0000 C   0  0
    2.6004    2.9949    0.0000 C   0  0
    2.5953    1.4950    0.0000 C   0  0
   -1.2990    0.7500    0.0000 C   0  0
   -2.7248    1.2135    0.0000 S   0  0
   -3.6065    0.0000    0.0000 C   0  0
   -2.7248   -1.2135    0.0000 C   0  0
   -1.2990   -0.7500    0.0000 C   0  0
    0.0000   -1.5000    0.0000 N   0  0
    1.2935   -3.7495    0.0000 C   0  0
    1.2883   -5.2495    0.0000 C   0  0
   -0.0209   -7.4899    0.0000 C   0  0
   -1.3250   -8.2309    0.0000 C   0  0
  1  2  1  0
  2  3  1  0
  3  4  1  0
  4  5  2  0
  4  6  1  0
  6  7  2  0
  7  8  1  0
  8  9  2  0
  9 10  1  0
 10 11  1  0
 11 12  1  0
 12 13  1  0
 13 14  1  0
 14 15  1  0
 15 16  1  0
 16 17  2  0
 17 18  1  0
 18 19  1  0
 19 20  1  0
 20 21  2  0
 21 22  1  0
 21 23  1  0
 23 24  2  0
 24 25  1  0
 25 26  2  0
 26 27  1  0
 27 28  3  0
 24 29  1  0
 29 30  2  0
 30 20  1  0
 30 31  1  0
 18 32  2  0
 32 33  1  0
 33 34  1  0
 34 35  2  0
 35 36  1  0
 36 32  1  0
 36 37  2  0
 37 16  1  0
 14 38  1  0
 38 39  1  0
 39 11  1  0
  9 40  1  0
 40 41  2  0
 41  6  1  0
M  END
> <Smiles>
CCOC(=O)c1ccc(CN2CCC(Nc3nc(Oc4c(C)cc(/C=C/C#N)cc4C)c4sccc4n3)CC2)cc1

> <IC50_uM>
0.0852

> <pIC50>
7.069560405

> <Activity>
1

$$$$

  SciTegic10102310092D

 36 39  0  0  0  0            999 V2000
    2.5981   -1.5000    0.0000 C   0  0
    1.2990   -0.7500    0.0000 C   0  0
    1.2990    0.7500    0.0000 C   0  0
    0.0000    1.5000    0.0000 C   0  0
    0.0000    3.0008    0.0000 C   0  0
    0.0000    4.5008    0.0000 N   0  0
   -1.2990    0.7500    0.0000 C   0  0
   -1.2990   -0.7500    0.0000 C   0  0
   -2.5981   -1.5000    0.0000 C   0  0
    0.0000   -1.5000    0.0000 C   0  0
    0.0031   -3.0008    0.0000 O   0  0
    1.3039   -3.7494    0.0000 C   0  0
    2.6005   -2.9949    0.0000 N   0  0
    3.9021   -3.7404    0.0000 C   0  0
    5.2008   -2.9882    0.0000 N   0  0
    6.5021   -3.7360    0.0000 C   0  0
    7.8012   -2.9860    0.0000 C   0  0
    9.1002   -3.7360    0.0000 C   0  0
    9.1002   -5.2360    0.0000 N   0  0
   10.3984   -5.9891    0.0000 C   0  0
   10.3963   -7.4900    0.0000 C   0  0
    9.0946   -8.2356    0.0000 C   0  0
    9.0894   -9.7355    0.0000 C   0  0
   10.3859  -10.4900    0.0000 C   0  0
   10.3838  -11.9909    0.0000 C   0  0
   11.6813  -12.7435    0.0000 O   0  0
    9.0835  -12.7386    0.0000 O   0  0
   11.6875   -9.7445    0.0000 C   0  0
   11.6927   -8.2445    0.0000 C   0  0
   12.9943   -7.4991    0.0000 Cl  0  0
    7.8012   -5.9860    0.0000 C   0  0
    6.5021   -5.2360    0.0000 C   0  0
    3.9073   -5.2404    0.0000 N   0  0
    2.6108   -5.9949    0.0000 C   0  0
    1.3092   -5.2494    0.0000 C   0  0
    0.0128   -6.0039    0.0000 Br  0  0
  1  2  1  0
  2  3  2  0
  3  4  1  0
  4  5  1  0
  5  6  3  0
  4  7  2  0
  7  8  1  0
  8  9  1  0
  8 10  2  0
 10  2  1  0
 10 11  1  0
 11 12  1  0
 12 13  2  0
 13 14  1  0
 14 15  1  0
 15 16  1  0
 16 17  1  0
 17 18  1  0
 18 19  1  0
 19 20  1  0
 20 21  1  0
 21 22  2  0
 22 23  1  0
 23 24  2  0
 24 25  1  0
 25 26  2  0
 25 27  1  0
 24 28  1  0
 28 29  2  0
 29 21  1  0
 29 30  1  0
 19 31  1  0
 31 32  1  0
 32 16  1  0
 14 33  2  0
 33 34  1  0
 34 35  2  0
 35 12  1  0
 35 36  1  0
M  END
> <Smiles>
Cc1cc(C#N)cc(C)c1Oc1nc(NC2CCN(Cc3ccc(C(=O)O)cc3Cl)CC2)ncc1Br

> <IC50_uM>
0.086

> <pIC50>
7.065501549

> <Activity>
1

$$$$

  SciTegic10102310092D

 29 31  0  0  0  0            999 V2000
    3.1676   -7.5606    0.0000 C   0  0
    1.7006   -7.2475    0.0000 C   0  0
    0.6960   -8.3614    0.0000 C   0  0
   -0.7710   -8.0483    0.0000 C   0  0
   -1.7756   -9.1622    0.0000 C   0  0
   -1.2333   -6.6213    0.0000 C   0  0
   -0.2287   -5.5075    0.0000 C   0  0
   -0.6913   -4.0797    0.0000 S   0  0
   -2.1584   -3.7671    0.0000 O   0  0
   -1.6957   -5.1937    0.0000 O   0  0
    0.3114   -2.9665    0.0000 C   0  0
    1.8032   -3.1233    0.0000 C   0  0
    2.5551   -4.4192    0.0000 C   0  0
    1.8074   -5.7196    0.0000 O   0  0
    4.0559   -4.4171    0.0000 N   0  0
    4.8090   -5.7153    0.0000 C   0  0
    6.3098   -5.7131    0.0000 C   0  0
    7.0629   -7.0113    0.0000 C   0  0
    6.3152   -8.3116    0.0000 N   0  0
    8.5629   -7.0091    0.0000 O   0  0
    2.4133   -1.7530    0.0000 N   0  0
    1.2990   -0.7500    0.0000 C   0  0
    1.2990    0.7500    0.0000 C   0  0
    0.0000    1.5000    0.0000 C   0  0
   -1.2990    0.7500    0.0000 C   0  0
   -2.5981    1.5000    0.0000 Br  0  0
   -1.2990   -0.7500    0.0000 C   0  0
    0.0000   -1.5000    0.0000 C   0  0
    1.2383   -5.8206    0.0000 C   0  0
  1  2  1  0
  2  3  2  0
  3  4  1  0
  4  5  1  0
  4  6  2  0
  6  7  1  0
  7  8  1  0
  8  9  2  0
  8 10  2  0
  8 11  1  0
 11 12  2  0
 12 13  1  0
 13 14  2  0
 13 15  1  0
 15 16  1  0
 16 17  1  0
 17 18  1  0
 18 19  1  0
 18 20  2  0
 12 21  1  0
 21 22  1  0
 22 23  2  0
 23 24  1  0
 24 25  2  0
 25 26  1  0
 25 27  1  0
 27 28  2  0
 28 11  1  0
 28 22  1  0
  7 29  2  0
 29  2  1  0
M  END
> <Smiles>
Cc1cc(C)cc(S(=O)(=O)c2c(C(=O)NCCC(N)=O)[nH]c3ccc(Br)cc23)c1

> <IC50_uM>
0.086

> <pIC50>
7.065501549

> <Activity>
1

$$$$

  SciTegic10102310092D

 35 38  0  0  0  0            999 V2000
    3.1676   -7.5606    0.0000 C   0  0
    1.7006   -7.2475    0.0000 C   0  0
    0.6960   -8.3614    0.0000 C   0  0
   -0.7710   -8.0483    0.0000 C   0  0
   -1.7756   -9.1622    0.0000 C   0  0
   -1.2333   -6.6213    0.0000 C   0  0
   -0.2287   -5.5075    0.0000 C   0  0
   -0.6913   -4.0797    0.0000 S   0  0
   -2.1584   -3.7671    0.0000 O   0  0
   -1.6957   -5.1937    0.0000 O   0  0
    0.3114   -2.9665    0.0000 N   0  0
    1.8032   -3.1233    0.0000 C   0  0
    2.5551   -4.4192    0.0000 S   0  0
    4.0559   -4.4171    0.0000 C   0  0
    4.8090   -5.7153    0.0000 C   0  0
    4.0613   -7.0156    0.0000 O   0  0
    6.3098   -5.7131    0.0000 N   0  0
    7.0629   -7.0113    0.0000 C   0  0
    8.5630   -7.0113    0.0000 C   0  0
    9.3130   -8.3103    0.0000 C   0  0
    8.5631   -9.6094    0.0000 C   0  0
    9.3136  -10.9091    0.0000 S   0  0
    8.5632  -12.2079    0.0000 C   0  0
   10.8136  -10.9100    0.0000 O   0  0
   10.0630  -12.2085    0.0000 O   0  0
    7.0631   -9.6094    0.0000 C   0  0
    6.3130   -8.3104    0.0000 C   0  0
    2.4133   -1.7530    0.0000 N   0  0
    1.2990   -0.7500    0.0000 C   0  0
    1.2990    0.7500    0.0000 C   0  0
    0.0000    1.5000    0.0000 C   0  0
   -1.2990    0.7500    0.0000 C   0  0
   -1.2990   -0.7500    0.0000 C   0  0
    0.0000   -1.5000    0.0000 C   0  0
    1.2383   -5.8206    0.0000 C   0  0
  1  2  1  0
  2  3  2  0
  3  4  1  0
  4  5  1  0
  4  6  2  0
  6  7  1  0
  7  8  1  0
  8  9  2  0
  8 10  2  0
  8 11  1  0
 11 12  1  0
 12 13  1  0
 13 14  1  0
 14 15  1  0
 15 16  2  0
 15 17  1  0
 17 18  1  0
 18 19  2  0
 19 20  1  0
 20 21  2  0
 21 22  1  0
 22 23  1  0
 22 24  2  0
 22 25  2  0
 21 26  1  0
 26 27  2  0
 27 18  1  0
 12 28  2  0
 28 29  1  0
 29 30  2  0
 30 31  1  0
 31 32  2  0
 32 33  1  0
 33 34  2  0
 34 29  1  0
 34 11  1  0
  7 35  2  0
 35  2  1  0
M  END
> <Smiles>
Cc1cc(C)cc(S(=O)(=O)n2c(SCC(=O)Nc3ccc(S(C)(=O)=O)cc3)nc3ccccc32)c1

> <IC50_uM>
0.088

> <pIC50>
7.055517328

> <Activity>
1

$$$$

  SciTegic10102310092D

 25 27  0  0  0  0            999 V2000
    2.5981   -1.5000    0.0000 C   0  0
    1.2990   -0.7500    0.0000 C   0  0
    1.2990    0.7500    0.0000 C   0  0
    0.0000    1.5000    0.0000 C   0  0
    0.0000    3.0000    0.0000 C   0  0
   -1.2990    0.7500    0.0000 C   0  0
   -2.6003    1.4977    0.0000 N   0  0
   -3.8990    0.7455    0.0000 C   0  0
   -5.2007    1.4909    0.0000 C   0  0
   -6.4972    0.7364    0.0000 C   0  0
   -6.4920   -0.7636    0.0000 N   0  0
   -5.1903   -1.5091    0.0000 C   0  0
   -5.1821   -3.0099    0.0000 N   0  0
   -3.8787   -3.7540    0.0000 C   0  0
   -3.8682   -5.2539    0.0000 C   0  0
   -2.5640   -5.9949    0.0000 C   0  0
   -1.2702   -5.2360    0.0000 C   0  0
    0.0347   -5.9774    0.0000 C   0  0
    1.3389   -6.7184    0.0000 N   0  0
   -1.2805   -3.7360    0.0000 C   0  0
   -2.5847   -2.9950    0.0000 C   0  0
   -3.8939   -0.7546    0.0000 N   0  0
   -1.2990   -0.7500    0.0000 C   0  0
   -2.5981   -1.5000    0.0000 C   0  0
    0.0000   -1.5000    0.0000 C   0  0
  1  2  1  0
  2  3  2  0
  3  4  1  0
  4  5  1  0
  4  6  2  0
  6  7  1  0
  7  8  1  0
  8  9  2  0
  9 10  1  0
 10 11  2  0
 11 12  1  0
 12 13  1  0
 13 14  1  0
 14 15  2  0
 15 16  1  0
 16 17  2  0
 17 18  1  0
 18 19  3  0
 17 20  1  0
 20 21  2  0
 21 14  1  0
 12 22  2  0
 22  8  1  0
  6 23  1  0
 23 24  1  0
 23 25  2  0
 25  2  1  0
M  END
> <Smiles>
Cc1cc(C)c(Nc2ccnc(Nc3ccc(C#N)cc3)n2)c(C)c1

> <IC50_uM>
0.09

> <pIC50>
7.045757491

> <Activity>
1

$$$$

  SciTegic10102310092D

 32 35  0  0  1  0            999 V2000
    3.1676   -7.5606    0.0000 C   0  0
    1.7006   -7.2475    0.0000 C   0  0
    0.6960   -8.3614    0.0000 C   0  0
   -0.7710   -8.0483    0.0000 C   0  0
   -1.7756   -9.1622    0.0000 C   0  0
   -1.2333   -6.6213    0.0000 C   0  0
   -0.2287   -5.5075    0.0000 C   0  0
   -0.6913   -4.0797    0.0000 S   0  0
   -2.1584   -3.7671    0.0000 O   0  0
   -1.6957   -5.1937    0.0000 O   0  0
    0.3114   -2.9665    0.0000 C   0  0
    1.8032   -3.1233    0.0000 C   0  0
    2.5551   -4.4192    0.0000 C   0  0
    1.8074   -5.7196    0.0000 O   0  0
    4.0559   -4.4171    0.0000 N   0  0
    4.8090   -5.7153    0.0000 C   0  0  2  0  0  0
    4.0613   -7.0156    0.0000 C   0  0
    6.3098   -5.7131    0.0000 C   0  0
    7.0644   -7.0095    0.0000 C   0  0
    8.5644   -7.0043    0.0000 C   0  0
    9.3099   -5.7026    0.0000 C   0  0
    8.5554   -4.4062    0.0000 C   0  0
    7.0554   -4.4114    0.0000 C   0  0
    2.4133   -1.7530    0.0000 N   0  0
    1.2990   -0.7500    0.0000 C   0  0
    1.2990    0.7500    0.0000 C   0  0
    0.0000    1.5000    0.0000 C   0  0
   -1.2990    0.7500    0.0000 C   0  0
   -2.5981    1.5000    0.0000 Cl  0  0
   -1.2990   -0.7500    0.0000 C   0  0
    0.0000   -1.5000    0.0000 C   0  0
    1.2383   -5.8206    0.0000 C   0  0
  1  2  1  0
  2  3  2  0
  3  4  1  0
  4  5  1  0
  4  6  2  0
  6  7  1  0
  7  8  1  0
  8  9  2  0
  8 10  2  0
  8 11  1  0
 11 12  2  0
 12 13  1  0
 13 14  2  0
 13 15  1  0
 15 16  1  0
 16 17  1  1
 16 18  1  0
 18 19  2  0
 19 20  1  0
 20 21  2  0
 21 22  1  0
 22 23  2  0
 23 18  1  0
 12 24  1  0
 24 25  1  0
 25 26  2  0
 26 27  1  0
 27 28  2  0
 28 29  1  0
 28 30  1  0
 30 31  2  0
 31 11  1  0
 31 25  1  0
  7 32  2  0
 32  2  1  0
M  END
> <Smiles>
Cc1cc(C)cc(S(=O)(=O)c2c(C(=O)N[C@H](C)c3ccccc3)[nH]c3ccc(Cl)cc23)c1

> <IC50_uM>
0.09

> <pIC50>
7.045757491

> <Activity>
1

$$$$

  SciTegic10102310092D

 35 38  0  0  0  0            999 V2000
    2.5981   -1.5000    0.0000 C   0  0
    1.2990   -0.7500    0.0000 C   0  0
    1.2990    0.7500    0.0000 C   0  0
    0.0000    1.5000    0.0000 C   0  0
    0.0000    3.0008    0.0000 C   0  0
    0.0000    4.5008    0.0000 N   0  0
   -1.2990    0.7500    0.0000 C   0  0
   -1.2990   -0.7500    0.0000 C   0  0
   -2.5981   -1.5000    0.0000 C   0  0
    0.0000   -1.5000    0.0000 C   0  0
    0.0031   -3.0008    0.0000 O   0  0
    1.3039   -3.7494    0.0000 C   0  0
    1.3092   -5.2494    0.0000 C   0  0
    2.6108   -5.9949    0.0000 C   0  0
    2.6160   -7.4949    0.0000 Cl  0  0
    3.9073   -5.2404    0.0000 N   0  0
    3.9021   -3.7404    0.0000 C   0  0
    5.1977   -2.9829    0.0000 N   0  0
    5.1903   -1.4820    0.0000 C   0  0
    6.4841   -0.7230    0.0000 C   0  0
    6.4738    0.7770    0.0000 C   0  0
    5.1696    1.5180    0.0000 N   0  0
    5.1561    3.0188    0.0000 C   0  0
    3.8501    3.7583    0.0000 C   0  0
    3.8345    5.2582    0.0000 C   0  0
    2.5277    5.9947    0.0000 C   0  0
    1.2365    5.2313    0.0000 C   0  0
   -0.0725    5.9655    0.0000 C   0  0
   -0.0906    7.4654    0.0000 N   0  0
   -1.3626    5.2002    0.0000 O   0  0
    1.2521    3.7314    0.0000 C   0  0
    2.5588    2.9949    0.0000 C   0  0
    3.8757    0.7590    0.0000 C   0  0
    3.8861   -0.7410    0.0000 C   0  0
    2.6004   -2.9949    0.0000 C   0  0
  1  2  1  0
  2  3  2  0
  3  4  1  0
  4  5  1  0
  5  6  3  0
  4  7  2  0
  7  8  1  0
  8  9  1  0
  8 10  2  0
 10  2  1  0
 10 11  1  0
 11 12  1  0
 12 13  2  0
 13 14  1  0
 14 15  1  0
 14 16  2  0
 16 17  1  0
 17 18  1  0
 18 19  1  0
 19 20  1  0
 20 21  1  0
 21 22  1  0
 22 23  1  0
 23 24  1  0
 24 25  2  0
 25 26  1  0
 26 27  2  0
 27 28  1  0
 28 29  1  0
 28 30  2  0
 27 31  1  0
 31 32  2  0
 32 24  1  0
 22 33  1  0
 33 34  1  0
 34 19  1  0
 17 35  2  0
 35 12  1  0
M  END
> <Smiles>
Cc1cc(C#N)cc(C)c1Oc1cc(Cl)nc(NC2CCN(Cc3ccc(C(N)=O)cc3)CC2)c1

> <IC50_uM>
0.09

> <pIC50>
7.045757491

> <Activity>
1

$$$$

  SciTegic10102310092D

 25 27  0  0  0  0            999 V2000
    3.1676   -7.5606    0.0000 C   0  0
    1.7006   -7.2475    0.0000 C   0  0
    0.6960   -8.3614    0.0000 C   0  0
   -0.7710   -8.0483    0.0000 C   0  0
   -1.7756   -9.1622    0.0000 C   0  0
   -1.2333   -6.6213    0.0000 C   0  0
   -0.2287   -5.5075    0.0000 C   0  0
   -0.6913   -4.0797    0.0000 S   0  0
   -2.1584   -3.7671    0.0000 O   0  0
   -1.6957   -5.1937    0.0000 O   0  0
    0.3114   -2.9665    0.0000 C   0  0
    1.8032   -3.1233    0.0000 C   0  0
    2.5551   -4.4192    0.0000 C   0  0
    1.8074   -5.7196    0.0000 N   0  0
    4.0551   -4.4171    0.0000 O   0  0
    2.4133   -1.7530    0.0000 N   0  0
    1.2990   -0.7500    0.0000 C   0  0
    1.2990    0.7500    0.0000 C   0  0
    0.0000    1.5000    0.0000 C   0  0
   -1.2990    0.7500    0.0000 C   0  0
   -2.5981    1.5000    0.0000 F   0  0
   -1.2990   -0.7500    0.0000 C   0  0
   -2.5981   -1.5000    0.0000 F   0  0
    0.0000   -1.5000    0.0000 C   0  0
    1.2383   -5.8206    0.0000 C   0  0
  1  2  1  0
  2  3  2  0
  3  4  1  0
  4  5  1  0
  4  6  2  0
  6  7  1  0
  7  8  1  0
  8  9  2  0
  8 10  2  0
  8 11  1  0
 11 12  2  0
 12 13  1  0
 13 14  1  0
 13 15  2  0
 12 16  1  0
 16 17  1  0
 17 18  2  0
 18 19  1  0
 19 20  2  0
 20 21  1  0
 20 22  1  0
 22 23  1  0
 22 24  2  0
 24 11  1  0
 24 17  1  0
  7 25  2  0
 25  2  1  0
M  END
> <Smiles>
Cc1cc(C)cc(S(=O)(=O)c2c(C(N)=O)[nH]c3ccc(F)c(F)c23)c1

> <IC50_uM>
0.09

> <pIC50>
7.045757491

> <Activity>
1

$$$$

  SciTegic10102310092D

 20 21  0  0  0  0            999 V2000
    3.8912   -5.2570    0.0000 C   0  0
    3.8933   -3.7570    0.0000 C   0  0
    5.1937   -3.0093    0.0000 C   0  0
    2.5951   -3.0039    0.0000 C   0  0
    2.5973   -1.5031    0.0000 C   0  0
    1.2990   -0.7500    0.0000 C   0  0
    1.2990    0.7500    0.0000 C   0  0
    2.5981    1.5000    0.0000 O   0  0
    0.0000    1.5000    0.0000 C   0  0
   -1.2990    0.7500    0.0000 C   0  0
   -2.5981    1.5000    0.0000 O   0  0
   -3.8971    0.7500    0.0000 C   0  0
   -5.1984    1.4977    0.0000 C   0  0
   -6.4964    0.7459    0.0000 O   0  0
   -3.8971   -0.7500    0.0000 C   0  0
   -2.5981   -1.5000    0.0000 C   0  0
   -2.5981   -3.0000    0.0000 O   0  0
   -1.2990   -0.7500    0.0000 C   0  0
    0.0000   -1.5000    0.0000 C   0  0
    0.0000   -3.0000    0.0000 O   0  0
  1  2  1  0
  2  3  1  0
  2  4  2  0
  4  5  1  0
  5  6  1  0
  6  7  2  0
  7  8  1  0
  7  9  1  0
  9 10  2  0
 10 11  1  0
 11 12  1  0
 12 13  1  0
 13 14  1  0
 12 15  2  0
 15 16  1  0
 16 17  2  0
 16 18  1  0
 18 10  1  0
 18 19  2  0
 19  6  1  0
 19 20  1  0
M  END
> <Smiles>
CC(C)=CCc1c(O)cc2oc(CO)cc(=O)c2c1O

> <IC50_uM>
0.09

> <pIC50>
7.045757491

> <Activity>
1

$$$$

  SciTegic10102310092D

 21 22  0  0  0  0            999 V2000
    3.8983   -0.7459    0.0000 C   0  0
    2.6003   -1.4977    0.0000 O   0  0
    1.2990   -0.7500    0.0000 C   0  0
    1.2990    0.7500    0.0000 C   0  0
    0.0000    1.5000    0.0000 C   0  0
    0.0000    3.0000    0.0000 O   0  0
   -1.2991    3.7500    0.0000 C   0  0
   -1.3022    5.2508    0.0000 C   0  0
   -2.6023    5.9990    0.0000 O   0  0
   -2.5981    3.0000    0.0000 C   0  0
   -2.5981    1.5000    0.0000 C   0  0
   -3.8971    0.7500    0.0000 O   0  0
   -1.2990    0.7500    0.0000 C   0  0
   -1.2990   -0.7500    0.0000 C   0  0
   -2.5981   -1.5000    0.0000 O   0  0
    0.0000   -1.5000    0.0000 C   0  0
    0.0031   -3.0008    0.0000 C   0  0
    1.3039   -3.7494    0.0000 C   0  0
    1.3070   -5.2502    0.0000 C   0  0
    2.6071   -5.9984    0.0000 C   0  0
    0.0093   -6.0025    0.0000 C   0  0
  1  2  1  0
  2  3  1  0
  3  4  2  0
  4  5  1  0
  5  6  1  0
  6  7  1  0
  7  8  1  0
  8  9  1  0
  7 10  2  0
 10 11  1  0
 11 12  2  0
 11 13  1  0
 13  5  2  0
 13 14  1  0
 14 15  1  0
 14 16  2  0
 16  3  1  0
 16 17  1  0
 17 18  1  0
 18 19  2  0
 19 20  1  0
 19 21  1  0
M  END
> <Smiles>
COc1cc2oc(CO)cc(=O)c2c(O)c1CC=C(C)C

> <IC50_uM>
0.09

> <pIC50>
7.045757491

> <Activity>
1

$$$$

  SciTegic10102310092D

 19 20  0  0  0  0            999 V2000
    2.5981   -1.5000    0.0000 C   0  0
    1.2990   -0.7500    0.0000 C   0  0
    1.2990    0.7500    0.0000 C   0  0
    0.0000    1.5000    0.0000 C   0  0
    0.0000    3.0000    0.0000 C   0  0
   -1.2990    0.7500    0.0000 C   0  0
   -1.2990   -0.7500    0.0000 C   0  0
   -2.5972   -1.5031    0.0000 C   0  0
   -3.8976   -0.7554    0.0000 O   0  0
   -2.5951   -3.0039    0.0000 C   0  0
   -3.8915   -3.7585    0.0000 C   0  0
   -3.8863   -5.2585    0.0000 C   0  0
   -5.1828   -6.0130    0.0000 O   0  0
   -2.5847   -6.0040    0.0000 N   0  0
   -2.5795   -7.5040    0.0000 O   0  0
   -1.2883   -5.2495    0.0000 C   0  0
    0.0134   -5.9950    0.0000 O   0  0
   -1.2935   -3.7495    0.0000 N   0  0
    0.0000   -1.5000    0.0000 C   0  0
  1  2  1  0
  2  3  2  0
  3  4  1  0
  4  5  1  0
  4  6  2  0
  6  7  1  0
  7  8  1  0
  8  9  2  0
  8 10  1  0
 10 11  2  0
 11 12  1  0
 12 13  2  0
 12 14  1  0
 14 15  1  0
 14 16  1  0
 16 17  2  0
 16 18  1  0
 18 10  1  0
  7 19  2  0
 19  2  1  0
M  END
> <Smiles>
Cc1cc(C)cc(C(=O)c2cc(=O)n(O)c(=O)[nH]2)c1

> <IC50_uM>
0.09

> <pIC50>
7.045757491

> <Activity>
1

$$$$

  SciTegic10102310092D

 22 23  0  0  0  0            999 V2000
    3.8983   -0.7459    0.0000 C   0  0
    2.6003   -1.4977    0.0000 O   0  0
    1.2990   -0.7500    0.0000 C   0  0
    1.2990    0.7500    0.0000 C   0  0
    0.0000    1.5000    0.0000 C   0  0
    0.0000    3.0000    0.0000 O   0  0
   -1.2991    3.7500    0.0000 C   0  0
   -1.3022    5.2508    0.0000 C   0  0
   -2.6023    5.9990    0.0000 O   0  0
   -2.5981    3.0000    0.0000 C   0  0
   -2.5981    1.5000    0.0000 C   0  0
   -3.8971    0.7500    0.0000 O   0  0
   -1.2990    0.7500    0.0000 C   0  0
   -1.2990   -0.7500    0.0000 C   0  0
   -2.5981   -1.5000    0.0000 O   0  0
    0.0000   -1.5000    0.0000 C   0  0
    0.0031   -3.0008    0.0000 C   0  0
    1.3039   -3.7494    0.0000 C   0  0
    1.3070   -5.2502    0.0000 C   0  0
    0.0093   -6.0025    0.0000 C   0  0
    1.3094   -6.7502    0.0000 C   0  0
    2.6071   -5.9984    0.0000 O   0  0
  1  2  1  0
  2  3  1  0
  3  4  2  0
  4  5  1  0
  5  6  1  0
  6  7  1  0
  7  8  1  0
  8  9  1  0
  7 10  2  0
 10 11  1  0
 11 12  2  0
 11 13  1  0
 13  5  2  0
 13 14  1  0
 14 15  1  0
 14 16  2  0
 16  3  1  0
 16 17  1  0
 17 18  1  0
 18 19  1  0
 19 20  1  0
 19 21  1  0
 19 22  1  0
M  END
> <Smiles>
COc1cc2oc(CO)cc(=O)c2c(O)c1CCC(C)(C)O

> <IC50_uM>
0.09

> <pIC50>
7.045757491

> <Activity>
1

$$$$

  SciTegic10102310092D

 22 23  0  0  0  0            999 V2000
    3.8983   -0.7459    0.0000 C   0  0
    2.6003   -1.4977    0.0000 O   0  0
    1.2990   -0.7500    0.0000 C   0  0
    1.2990    0.7500    0.0000 C   0  0
    0.0000    1.5000    0.0000 C   0  0
    0.0000    3.0000    0.0000 O   0  0
   -1.2991    3.7500    0.0000 C   0  0
   -1.3022    5.2508    0.0000 C   0  0
   -2.6023    5.9990    0.0000 O   0  0
   -2.5981    3.0000    0.0000 C   0  0
   -2.5981    1.5000    0.0000 C   0  0
   -3.8971    0.7500    0.0000 O   0  0
   -1.2990    0.7500    0.0000 C   0  0
   -1.2990   -0.7500    0.0000 C   0  0
   -2.5972   -1.5031    0.0000 O   0  0
   -2.5951   -3.0031    0.0000 C   0  0
    0.0000   -1.5000    0.0000 C   0  0
    0.0031   -3.0008    0.0000 C   0  0
    1.3039   -3.7494    0.0000 C   0  0
    1.3070   -5.2502    0.0000 C   0  0
    2.6071   -5.9984    0.0000 C   0  0
    0.0093   -6.0025    0.0000 C   0  0
  1  2  1  0
  2  3  1  0
  3  4  2  0
  4  5  1  0
  5  6  1  0
  6  7  1  0
  7  8  1  0
  8  9  1  0
  7 10  2  0
 10 11  1  0
 11 12  2  0
 11 13  1  0
 13  5  2  0
 13 14  1  0
 14 15  1  0
 15 16  1  0
 14 17  2  0
 17  3  1  0
 17 18  1  0
 18 19  1  0
 19 20  2  0
 20 21  1  0
 20 22  1  0
M  END
> <Smiles>
COc1cc2oc(CO)cc(=O)c2c(OC)c1CC=C(C)C

> <IC50_uM>
0.09

> <pIC50>
7.045757491

> <Activity>
1

$$$$

  SciTegic10102310092D

 28 30  0  0  0  0            999 V2000
    2.5981   -1.5000    0.0000 C   0  0
    1.2990   -0.7500    0.0000 C   0  0
    1.2990    0.7500    0.0000 C   0  0
    0.0000    1.5000    0.0000 C   0  0
    0.0000    3.0008    0.0000 C   0  0
    0.0000    4.5008    0.0000 N   0  0
   -1.2990    0.7500    0.0000 C   0  0
   -1.2990   -0.7500    0.0000 C   0  0
   -2.5981   -1.5000    0.0000 C   0  0
    0.0000   -1.5000    0.0000 C   0  0
    0.0031   -3.0008    0.0000 N   0  0
    1.3039   -3.7494    0.0000 C   0  0
    2.6005   -2.9949    0.0000 N   0  0
    3.9021   -3.7404    0.0000 C   0  0
    5.2008   -2.9882    0.0000 N   0  0
    6.5021   -3.7360    0.0000 C   0  0
    7.8012   -2.9860    0.0000 C   0  0
    9.1002   -3.7360    0.0000 C   0  0
    9.1002   -5.2360    0.0000 C   0  0
   10.4000   -5.9865    0.0000 C   0  0
   11.6990   -6.7365    0.0000 N   0  0
    7.8012   -5.9860    0.0000 C   0  0
    6.5021   -5.2360    0.0000 C   0  0
    3.9073   -5.2404    0.0000 N   0  0
    2.6108   -5.9949    0.0000 C   0  0
    1.3092   -5.2494    0.0000 C   0  0
    0.0121   -6.0044    0.0000 C   0  0
   -1.2843   -6.7589    0.0000 N   0  0
  1  2  1  0
  2  3  2  0
  3  4  1  0
  4  5  1  0
  5  6  3  0
  4  7  2  0
  7  8  1  0
  8  9  1  0
  8 10  2  0
 10  2  1  0
 10 11  1  0
 11 12  1  0
 12 13  2  0
 13 14  1  0
 14 15  1  0
 15 16  1  0
 16 17  2  0
 17 18  1  0
 18 19  2  0
 19 20  1  0
 20 21  3  0
 19 22  1  0
 22 23  2  0
 23 16  1  0
 14 24  2  0
 24 25  1  0
 25 26  2  0
 26 12  1  0
 26 27  1  0
 27 28  3  0
M  END
> <Smiles>
Cc1cc(C#N)cc(C)c1Nc1nc(Nc2ccc(C#N)cc2)ncc1C#N

> <IC50_uM>
0.091

> <pIC50>
7.040958608

> <Activity>
1

$$$$

  SciTegic10102310092D

 39 42  0  0  0  0            999 V2000
    5.1908   -4.5097    0.0000 N   0  0
    3.8933   -3.7570    0.0000 C   0  0
    2.5951   -3.0039    0.0000 C   0  0
    2.5973   -1.5031    0.0000 C   0  0
    1.2990   -0.7500    0.0000 C   0  0
    1.2990    0.7500    0.0000 C   0  0
    0.0000    1.5000    0.0000 C   0  0
   -1.2990    0.7500    0.0000 C   0  0
   -2.6003    1.4977    0.0000 N   0  0
   -3.8990    0.7455    0.0000 C   0  0
   -5.2007    1.4909    0.0000 C   0  0
   -6.4972    0.7364    0.0000 C   0  0
   -7.8010    1.4796    0.0000 N   0  0
   -9.0971    0.7229    0.0000 C   0  0
  -10.4010    1.4661    0.0000 C   0  0
  -11.6971    0.7093    0.0000 C   0  0
  -13.0013    1.4503    0.0000 C   0  0
  -14.2951    0.6913    0.0000 C   0  0
  -14.2848   -0.8087    0.0000 C   0  0
  -15.5793   -1.5681    0.0000 S   0  0
  -15.5684   -3.0680    0.0000 N   0  0
  -16.8840   -0.8279    0.0000 O   0  0
  -16.8727   -2.3277    0.0000 O   0  0
  -12.9806   -1.5497    0.0000 C   0  0
  -11.6867   -0.7907    0.0000 C   0  0
   -6.4920   -0.7636    0.0000 N   0  0
   -5.1903   -1.5091    0.0000 C   0  0
   -5.1821   -3.0099    0.0000 N   0  0
   -3.8787   -3.7540    0.0000 C   0  0
   -3.8682   -5.2539    0.0000 C   0  0
   -2.5640   -5.9949    0.0000 C   0  0
   -1.2702   -5.2360    0.0000 C   0  0
    0.0347   -5.9774    0.0000 C   0  0
    1.3389   -6.7184    0.0000 N   0  0
   -1.2805   -3.7360    0.0000 C   0  0
   -2.5847   -2.9950    0.0000 C   0  0
   -3.8939   -0.7546    0.0000 N   0  0
   -1.2990   -0.7500    0.0000 C   0  0
    0.0000   -1.5000    0.0000 C   0  0
  1  2  3  0
  2  3  1  0
  3  4  2  0
  4  5  1  0
  5  6  2  0
  6  7  1  0
  7  8  2  0
  8  9  1  0
  9 10  1  0
 10 11  2  0
 11 12  1  0
 12 13  1  0
 13 14  1  0
 14 15  1  0
 15 16  1  0
 16 17  2  0
 17 18  1  0
 18 19  2  0
 19 20  1  0
 20 21  1  0
 20 22  2  0
 20 23  2  0
 19 24  1  0
 24 25  2  0
 25 16  1  0
 12 26  2  0
 26 27  1  0
 27 28  1  0
 28 29  1  0
 29 30  2  0
 30 31  1  0
 31 32  2  0
 32 33  1  0
 33 34  3  0
 32 35  1  0
 35 36  2  0
 36 29  1  0
 27 37  2  0
 37 10  1  0
  8 38  1  0
 38 39  2  0
 39  5  1  0
M  END
> <Smiles>
N#C/C=C/c1ccc(Nc2cc(NCCc3ccc(S(N)(=O)=O)cc3)nc(Nc3ccc(C#N)cc3)n2)cc1

> <IC50_uM>
0.0912

> <pIC50>
7.040005162

> <Activity>
1

$$$$

  SciTegic10102310092D

  9  9  0  0  0  0            999 V2000
    1.2990   -0.7500    0.0000 C   0  0
    1.2990    0.7500    0.0000 N   0  0
    0.0000    1.5000    0.0000 C   0  0
   -1.2990    0.7500    0.0000 C   0  0
   -1.2990   -0.7500    0.0000 C   0  0
    0.0000   -1.5000    0.0000 C   0  0
   -0.0031    3.0008    0.0000 P   0  0  0  0  0  4
    1.2946    3.7531    0.0000 O   0  0
   -1.3032    3.7490    0.0000 O   0  0
  1  2  2  0
  2  3  1  0
  3  4  2  0
  4  5  1  0
  5  6  2  0
  6  1  1  0
  3  7  1  0
  7  8  1  0
  7  9  2  0
M  END
> <Smiles>
c1nc(ccc1)[P](O)=O

> <IC50_uM>
0.0912

> <pIC50>
7.040005162

> <Activity>
1

$$$$

  SciTegic10102310092D

  9  9  0  0  0  0            999 V2000
    1.2990   -0.7500    0.0000 C   0  0
    1.2990    0.7500    0.0000 N   0  0
    0.0000    1.5000    0.0000 C   0  0
   -1.2990    0.7500    0.0000 C   0  0
   -2.6003    1.4977    0.0000 P   0  0  0  0  0  4
   -2.6030    2.9977    0.0000 O   0  0
   -3.8983    0.7459    0.0000 O   0  0
   -1.2990   -0.7500    0.0000 C   0  0
    0.0000   -1.5000    0.0000 C   0  0
  1  2  2  0
  2  3  1  0
  3  4  2  0
  4  5  1  0
  5  6  1  0
  5  7  2  0
  4  8  1  0
  8  9  2  0
  9  1  1  0
M  END
> <Smiles>
c1ncc([P](O)=O)cc1

> <IC50_uM>
0.0912

> <pIC50>
7.040005162

> <Activity>
1

$$$$

  SciTegic10102310092D

 27 30  0  0  0  0            999 V2000
    1.8073   -5.7196    0.0000 O   0  0
    2.5551   -4.4192    0.0000 C   0  0
    4.0559   -4.4171    0.0000 N   0  0
    4.8090   -5.7153    0.0000 C   0  0
    6.3098   -5.7131    0.0000 C   0  0
    7.1739   -6.9236    0.0000 C   0  0
    8.5988   -6.4551    0.0000 N   0  0
    8.5936   -4.9551    0.0000 C   0  0
    7.1654   -4.4966    0.0000 S   0  0
    1.8032   -3.1233    0.0000 C   0  0
    2.4133   -1.7530    0.0000 N   0  0
    1.2990   -0.7500    0.0000 C   0  0
    1.2990    0.7500    0.0000 C   0  0
    0.0000    1.5000    0.0000 C   0  0
   -1.2990    0.7500    0.0000 C   0  0
   -2.5981    1.5000    0.0000 Br  0  0
   -1.2990   -0.7500    0.0000 C   0  0
    0.0000   -1.5000    0.0000 C   0  0
    0.3114   -2.9665    0.0000 C   0  0
   -0.6913   -4.0797    0.0000 S   0  0
   -0.2276   -5.5062    0.0000 O   0  0
    0.7759   -4.3916    0.0000 O   0  0
   -2.1595   -3.7683    0.0000 N   0  0
   -3.2523   -4.7770    0.0000 C   0  0
   -4.5516   -4.0276    0.0000 C   0  0
   -4.2404   -2.5602    0.0000 C   0  0
   -2.7487   -2.4028    0.0000 C   0  0
  1  2  2  0
  2  3  1  0
  3  4  1  0
  4  5  1  0
  5  6  2  0
  6  7  1  0
  7  8  2  0
  8  9  1  0
  9  5  1  0
  2 10  1  0
 10 11  1  0
 11 12  1  0
 12 13  2  0
 13 14  1  0
 14 15  2  0
 15 16  1  0
 15 17  1  0
 17 18  2  0
 18 12  1  0
 18 19  1  0
 19 10  2  0
 19 20  1  0
 20 21  2  0
 20 22  2  0
 20 23  1  0
 23 24  1  0
 24 25  1  0
 25 26  1  0
 26 27  1  0
 27 23  1  0
M  END
> <Smiles>
O=C(NCc1cncs1)c1[nH]c2ccc(Br)cc2c1S(=O)(=O)N1CCCC1

> <IC50_uM>
0.093

> <pIC50>
7.031517051

> <Activity>
1

$$$$

  SciTegic10102310092D

 18 19  0  0  0  0            999 V2000
    2.5981   -1.5000    0.0000 C   0  0
    1.2990   -0.7500    0.0000 C   0  0
    1.2990    0.7500    0.0000 C   0  0
    0.0000    1.5000    0.0000 C   0  0
   -1.2990    0.7500    0.0000 C   0  0
   -2.6003    1.4977    0.0000 C   0  0
   -2.6030    2.9977    0.0000 O   0  0
   -3.8990    0.7455    0.0000 C   0  0
   -5.2007    1.4909    0.0000 C   0  0
   -6.4972    0.7364    0.0000 C   0  0
   -7.7988    1.4819    0.0000 O   0  0
   -6.4920   -0.7636    0.0000 N   0  0
   -7.7884   -1.5181    0.0000 O   0  0
   -5.1903   -1.5091    0.0000 C   0  0
   -5.1851   -3.0091    0.0000 O   0  0
   -3.8939   -0.7546    0.0000 N   0  0
   -1.2990   -0.7500    0.0000 C   0  0
    0.0000   -1.5000    0.0000 C   0  0
  1  2  1  0
  2  3  2  0
  3  4  1  0
  4  5  2  0
  5  6  1  0
  6  7  2  0
  6  8  1  0
  8  9  2  0
  9 10  1  0
 10 11  2  0
 10 12  1  0
 12 13  1  0
 12 14  1  0
 14 15  2  0
 14 16  1  0
 16  8  1  0
  5 17  1  0
 17 18  2  0
 18  2  1  0
M  END
> <Smiles>
Cc1ccc(C(=O)c2cc(=O)n(O)c(=O)[nH]2)cc1

> <IC50_uM>
0.093

> <pIC50>
7.031517051

> <Activity>
1

$$$$

  SciTegic10102310092D

 34 36  0  0  0  0            999 V2000
    2.5981   -1.5000    0.0000 C   0  0
    1.2990   -0.7500    0.0000 C   0  0
    1.2990    0.7500    0.0000 C   0  0
    0.0000    1.5000    0.0000 C   0  0
    0.0000    3.0008    0.0000 C   0  0
    0.0000    4.5008    0.0000 N   0  0
   -1.2990    0.7500    0.0000 C   0  0
   -1.2990   -0.7500    0.0000 C   0  0
   -2.5972   -1.5031    0.0000 C   0  0
   -3.8976   -0.7554    0.0000 O   0  0
   -2.5951   -3.0039    0.0000 C   0  0
   -1.2935   -3.7495    0.0000 C   0  0
   -1.2883   -5.2495    0.0000 C   0  0
    0.0134   -5.9950    0.0000 Cl  0  0
   -2.5847   -6.0040    0.0000 C   0  0
   -3.8863   -5.2585    0.0000 C   0  0
   -3.8915   -3.7585    0.0000 C   0  0
   -5.1954   -3.0153    0.0000 O   0  0
   -6.4915   -3.7721    0.0000 C   0  0
   -7.7954   -3.0289    0.0000 C   0  0
   -7.8032   -1.5289    0.0000 O   0  0
   -9.0914   -3.7857    0.0000 N   0  0
  -10.3953   -3.0425    0.0000 C   0  0
  -10.4007   -1.5425    0.0000 N   0  0
  -11.7023   -0.7971    0.0000 C   0  0
  -12.9987   -1.5516    0.0000 C   0  0
  -14.3011   -0.8058    0.0000 S   0  0
  -15.5973   -1.5608    0.0000 N   0  0
  -14.3073    0.6942    0.0000 O   0  0
  -15.6031   -0.0610    0.0000 O   0  0
  -12.9934   -3.0516    0.0000 C   0  0
  -11.6918   -3.7970    0.0000 C   0  0
  -11.6865   -5.2970    0.0000 C   0  0
    0.0000   -1.5000    0.0000 C   0  0
  1  2  1  0
  2  3  2  0
  3  4  1  0
  4  5  1  0
  5  6  3  0
  4  7  2  0
  7  8  1  0
  8  9  1  0
  9 10  2  0
  9 11  1  0
 11 12  2  0
 12 13  1  0
 13 14  1  0
 13 15  2  0
 15 16  1  0
 16 17  2  0
 17 11  1  0
 17 18  1  0
 18 19  1  0
 19 20  1  0
 20 21  2  0
 20 22  1  0
 22 23  1  0
 23 24  2  0
 24 25  1  0
 25 26  2  0
 26 27  1  0
 27 28  1  0
 27 29  2  0
 27 30  2  0
 26 31  1  0
 31 32  2  0
 32 23  1  0
 32 33  1  0
  8 34  2  0
 34  2  1  0
M  END
> <Smiles>
Cc1cc(C#N)cc(C(=O)c2cc(Cl)ccc2OCC(=O)Nc2ncc(S(N)(=O)=O)cc2C)c1

> <IC50_uM>
0.09333

> <pIC50>
7.029978734

> <Activity>
1

$$$$

  SciTegic10102310092D

 36 38  0  0  0  0            999 V2000
    2.5981   -1.5000    0.0000 C   0  0
    1.2990   -0.7500    0.0000 C   0  0
    1.2990    0.7500    0.0000 C   0  0
    0.0000    1.5000    0.0000 C   0  0
    0.0000    3.0008    0.0000 S   0  0
   -1.2993    3.7504    0.0000 N   0  0
    1.2985    3.7517    0.0000 O   0  0
   -0.0007    4.5008    0.0000 O   0  0
   -1.2990    0.7500    0.0000 C   0  0
   -1.2990   -0.7500    0.0000 C   0  0
    0.0000   -1.5000    0.0000 C   0  0
   -0.0031   -3.0008    0.0000 N   0  0
   -1.3039   -3.7494    0.0000 C   0  0
   -2.6016   -2.9971    0.0000 O   0  0
   -1.3070   -5.2502    0.0000 C   0  0
   -2.6078   -5.9988    0.0000 O   0  0
   -2.6109   -7.4996    0.0000 C   0  0
   -1.3118   -8.2497    0.0000 C   0  0
   -1.3119   -9.7497    0.0000 C   0  0
   -2.6109  -10.4997    0.0000 C   0  0
   -2.6110  -11.9997    0.0000 Cl  0  0
   -3.9100   -9.7497    0.0000 C   0  0
   -3.9099   -8.2497    0.0000 C   0  0
   -5.2112   -7.5019    0.0000 C   0  0
   -5.2139   -6.0019    0.0000 O   0  0
   -6.5099   -8.2542    0.0000 C   0  0
   -7.8116   -7.5088    0.0000 C   0  0
   -9.1080   -8.2633    0.0000 C   0  0
  -10.4097   -7.5178    0.0000 Br  0  0
   -9.1028   -9.7633    0.0000 C   0  0
   -7.8012  -10.5088    0.0000 C   0  0
   -7.7960  -12.0096    0.0000 C   0  0
   -9.0919  -12.7649    0.0000 F   0  0
   -6.4941  -12.7547    0.0000 F   0  0
   -7.7901  -13.5096    0.0000 F   0  0
   -6.5048   -9.7543    0.0000 C   0  0
  1  2  1  0
  2  3  2  0
  3  4  1  0
  4  5  1  0
  5  6  1  0
  5  7  2  0
  5  8  2  0
  4  9  2  0
  9 10  1  0
 10 11  2  0
 11  2  1  0
 11 12  1  0
 12 13  1  0
 13 14  2  0
 13 15  1  0
 15 16  1  0
 16 17  1  0
 17 18  2  0
 18 19  1  0
 19 20  2  0
 20 21  1  0
 20 22  1  0
 22 23  2  0
 23 17  1  0
 23 24  1  0
 24 25  2  0
 24 26  1  0
 26 27  2  0
 27 28  1  0
 28 29  1  0
 28 30  2  0
 30 31  1  0
 31 32  1  0
 32 33  1  0
 32 34  1  0
 32 35  1  0
 31 36  2  0
 36 26  1  0
M  END
> <Smiles>
Cc1cc(S(N)(=O)=O)ccc1NC(=O)COc1ccc(Cl)cc1C(=O)c1cc(Br)cc(C(F)(F)F)c1

> <IC50_uM>
0.09333

> <pIC50>
7.029978734

> <Activity>
1

$$$$

  SciTegic10102310092D

 28 30  0  0  0  0            999 V2000
    3.8983   -0.7512    0.0000 C   0  0
    2.5988   -1.5004    0.0000 C   0  0
    2.5983   -3.0004    0.0000 C   0  0
    3.8975   -2.2510    0.0000 C   0  0
    1.2990   -0.7500    0.0000 C   0  0
    1.2990    0.7500    0.0000 C   0  0
    0.0000    1.5000    0.0000 C   0  0
   -1.2990    0.7500    0.0000 C   0  0
   -2.5987    1.5004    0.0000 N   0  0
   -3.9492    0.8772    0.0000 N   0  0
   -4.9546    1.9903    0.0000 N   0  0
   -4.2067    3.2905    0.0000 N   0  0
   -2.7390    2.9810    0.0000 C   0  0
   -1.6216    3.9790    0.0000 S   0  0
   -1.9268    5.4485    0.0000 C   0  0
   -0.8074    6.4482    0.0000 C   0  0
    0.6172    5.9785    0.0000 O   0  0
   -1.1126    7.9177    0.0000 N   0  0
    0.0068    8.9174    0.0000 C   0  0
    1.4306    8.4453    0.0000 C   0  0
    2.5514    9.4422    0.0000 C   0  0
    2.2485   10.9113    0.0000 C   0  0
    0.8247   11.3835    0.0000 C   0  0
   -0.2961   10.3866    0.0000 C   0  0
   -1.7198   10.8588    0.0000 Cl  0  0
   -1.2990   -0.7500    0.0000 C   0  0
   -2.5981   -1.5000    0.0000 Cl  0  0
    0.0000   -1.5000    0.0000 C   0  0
  1  2  1  0
  2  3  1  0
  2  4  1  0
  2  5  1  0
  5  6  2  0
  6  7  1  0
  7  8  2  0
  8  9  1  0
  9 10  1  0
 10 11  2  0
 11 12  1  0
 12 13  2  0
 13  9  1  0
 13 14  1  0
 14 15  1  0
 15 16  1  0
 16 17  2  0
 16 18  1  0
 18 19  1  0
 19 20  2  0
 20 21  1  0
 21 22  2  0
 22 23  1  0
 23 24  2  0
 24 19  1  0
 24 25  1  0
  8 26  1  0
 26 27  1  0
 26 28  2  0
 28  5  1  0
M  END
> <Smiles>
CC(C)(C)c1ccc(-n2nnnc2SCC(=O)Nc2ccccc2Cl)c(Cl)c1

> <IC50_uM>
0.094

> <pIC50>
7.026872146

> <Activity>
1

$$$$

  SciTegic10102310092D

 38 40  0  0  0  0            999 V2000
    6.4848   -8.2644    0.0000 C   0  0
    5.1873   -7.5117    0.0000 C   0  0
    5.1894   -6.0109    0.0000 N   0  0
    6.4889   -5.2601    0.0000 C   0  0
    6.4894   -3.7601    0.0000 C   0  0
    3.8912   -5.2578    0.0000 C   0  0
    3.8933   -3.7570    0.0000 C   0  0
    2.5951   -3.0039    0.0000 C   0  0
    2.5973   -1.5031    0.0000 N   0  0
    1.2990   -0.7500    0.0000 C   0  0
    1.2990    0.7500    0.0000 C   0  0
    0.0000    1.5000    0.0000 C   0  0
   -1.2990    0.7500    0.0000 C   0  0
   -2.5973    1.5031    0.0000 N   0  0
   -2.5951    3.0039    0.0000 C   0  0
   -1.2948    3.7516    0.0000 O   0  0
   -3.8933    3.7570    0.0000 C   0  0
   -3.8912    5.2578    0.0000 O   0  0
   -5.1894    6.0109    0.0000 C   0  0
   -6.4886    5.2609    0.0000 C   0  0
   -7.7876    6.0110    0.0000 C   0  0
   -7.7876    7.5110    0.0000 C   0  0
   -9.0866    8.2610    0.0000 Cl  0  0
   -6.4885    8.2609    0.0000 C   0  0
   -5.1895    7.5109    0.0000 C   0  0
   -3.8913    8.2640    0.0000 C   0  0
   -2.5909    7.5163    0.0000 O   0  0
   -3.8934    9.7648    0.0000 C   0  0
   -2.5970   10.5194    0.0000 C   0  0
   -2.6022   12.0194    0.0000 C   0  0
   -1.3058   12.7739    0.0000 F   0  0
   -3.9039   12.7649    0.0000 C   0  0
   -5.2003   12.0104    0.0000 C   0  0
   -6.5019   12.7559    0.0000 F   0  0
   -5.1951   10.5104    0.0000 C   0  0
   -1.2990   -0.7500    0.0000 C   0  0
   -2.5981   -1.5000    0.0000 C   0  0
    0.0000   -1.5000    0.0000 C   0  0
  1  2  1  0
  2  3  1  0
  3  4  1  0
  4  5  1  0
  3  6  1  0
  6  7  1  0
  7  8  1  0
  8  9  1  0
  9 10  1  0
 10 11  2  0
 11 12  1  0
 12 13  2  0
 13 14  1  0
 14 15  1  0
 15 16  2  0
 15 17  1  0
 17 18  1  0
 18 19  1  0
 19 20  2  0
 20 21  1  0
 21 22  2  0
 22 23  1  0
 22 24  1  0
 24 25  2  0
 25 19  1  0
 25 26  1  0
 26 27  2  0
 26 28  1  0
 28 29  2  0
 29 30  1  0
 30 31  1  0
 30 32  2  0
 32 33  1  0
 33 34  1  0
 33 35  2  0
 35 28  1  0
 13 36  1  0
 36 37  1  0
 36 38  2  0
 38 10  1  0
M  END
> <Smiles>
CCN(CC)CCCNc1ccc(NC(=O)COc2ccc(Cl)cc2C(=O)c2cc(F)cc(F)c2)c(C)c1

> <IC50_uM>
0.0955

> <pIC50>
7.019996628

> <Activity>
1

$$$$

  SciTegic10102310092D

  8  8  0  0  0  0            999 V2000
    0.7500   -1.0323    0.0000 C   0  0
    1.2135    0.3943    0.0000 C   0  0
    0.0000    1.2760    0.0000 C   0  0
   -0.0031    2.7742    0.0000 P   0  0  0  0  0  4
    1.2946    3.5265    0.0000 O   0  0
   -1.3033    3.5223    0.0000 O   0  0
   -1.2135    0.3943    0.0000 S   0  0
   -0.7500   -1.0323    0.0000 C   0  0
  1  2  1  0
  2  3  2  0
  3  4  1  0
  4  5  1  0
  4  6  2  0
  3  7  1  0
  7  8  1  0
  8  1  2  0
M  END
> <Smiles>
c1cc([P](O)=O)sc1

> <IC50_uM>
0.0955

> <pIC50>
7.019996628

> <Activity>
1

$$$$

  SciTegic10102310092D

  8  8  0  0  0  0            999 V2000
    0.7500   -1.0323    0.0000 C   0  0
    1.2135    0.3943    0.0000 C   0  0
    2.6375    0.8603    0.0000 P   0  0  0  0  0  4
    3.7540   -0.1415    0.0000 O   0  0
    2.9472    2.3279    0.0000 O   0  0
    0.0000    1.2760    0.0000 C   0  0
   -1.2135    0.3943    0.0000 S   0  0
   -0.7500   -1.0323    0.0000 C   0  0
  1  2  1  0
  2  3  1  0
  3  4  1  0
  3  5  2  0
  2  6  2  0
  6  7  1  0
  7  8  1  0
  8  1  2  0
M  END
> <Smiles>
c1c([P](O)=O)csc1

> <IC50_uM>
0.0955

> <pIC50>
7.019996628

> <Activity>
1

$$$$

  SciTegic10102310092D

 38 40  0  0  0  0            999 V2000
    7.7919    1.5103    0.0000 C   0  0
    9.0933    0.7644    0.0000 C   0  0
    9.0990   -0.7364    0.0000 N   0  0
    7.8003   -1.4887    0.0000 C   0  0
    7.8029   -2.9887    0.0000 O   0  0
    6.4990   -0.7409    0.0000 O   0  0
    5.2003   -1.4932    0.0000 C   0  0
    3.8990   -0.7455    0.0000 C   0  0
    3.8964    0.7545    0.0000 O   0  0
    2.6003   -1.4977    0.0000 N   0  0
    1.2990   -0.7500    0.0000 C   0  0
    1.2990    0.7500    0.0000 C   0  0
    0.0000    1.5000    0.0000 C   0  0
   -1.2990    0.7500    0.0000 C   0  0
   -2.5987    1.5004    0.0000 C   0  0
   -2.6012    3.0004    0.0000 C   0  0
   -3.9015    3.7484    0.0000 C   0  0
   -5.1993    2.9963    0.0000 C   0  0
   -6.5018    3.7420    0.0000 C   0  0
   -7.7993    2.9876    0.0000 C   0  0
   -9.1010    3.7329    0.0000 O   0  0
   -7.7943    1.4876    0.0000 O   0  0
   -5.1969    1.4963    0.0000 C   0  0
   -3.8967    0.7484    0.0000 C   0  0
   -1.2990   -0.7500    0.0000 C   0  0
    0.0000   -1.5000    0.0000 C   0  0
    0.0000   -3.0000    0.0000 Cl  0  0
   10.4003   -1.4841    0.0000 C   0  0
   10.4004   -2.9842    0.0000 C   0  0
   11.6994   -3.7342    0.0000 C   0  0
   12.9985   -2.9841    0.0000 C   0  0
   14.2982   -3.7345    0.0000 C   0  0
   14.2992   -5.2345    0.0000 C   0  0
   15.5970   -2.9841    0.0000 C   0  0
   15.5977   -4.4839    0.0000 C   0  0
   12.9984   -1.4841    0.0000 C   0  0
   11.6994   -0.7342    0.0000 C   0  0
   11.6994    0.7658    0.0000 Cl  0  0
  1  2  1  0
  2  3  1  0
  3  4  1  0
  4  5  2  0
  4  6  1  0
  6  7  1  0
  7  8  1  0
  8  9  2  0
  8 10  1  0
 10 11  1  0
 11 12  2  0
 12 13  1  0
 13 14  2  0
 14 15  1  0
 15 16  2  0
 16 17  1  0
 17 18  2  0
 18 19  1  0
 19 20  1  0
 20 21  2  0
 20 22  1  0
 18 23  1  0
 23 24  2  0
 24 15  1  0
 14 25  1  0
 25 26  2  0
 26 11  1  0
 26 27  1  0
  3 28  1  0
 28 29  2  0
 29 30  1  0
 30 31  2  0
 31 32  1  0
 32 33  1  0
 32 34  1  0
 32 35  1  0
 31 36  1  0
 36 37  2  0
 37 28  1  0
 37 38  1  0
M  END
> <Smiles>
CCN(C(=O)OCC(=O)Nc1ccc(-c2ccc(CC(=O)O)cc2)cc1Cl)c1ccc(C(C)(C)C)cc1Cl

> <IC50_uM>
0.098

> <pIC50>
7.008773924

> <Activity>
1

$$$$

  SciTegic10102310092D

 38 42  0  0  0  0            999 V2000
    2.5923    1.5001    0.0000 C   0  0
    3.8939    0.7546    0.0000 C   0  0
    5.1903    1.5091    0.0000 C   0  0
    6.4920    0.7636    0.0000 C   0  0
    7.7891    1.5185    0.0000 C   0  0
    9.0856    2.2729    0.0000 N   0  0
    6.4972   -0.7364    0.0000 C   0  0
    5.2007   -1.4909    0.0000 C   0  0
    5.2059   -2.9909    0.0000 C   0  0
    3.8990   -0.7455    0.0000 C   0  0
    2.6003   -1.4977    0.0000 O   0  0
    1.2990   -0.7500    0.0000 C   0  0
    1.2990    0.7500    0.0000 N   0  0
    0.0000    1.5000    0.0000 C   0  0
   -0.0031    3.0008    0.0000 N   0  0
   -1.3039    3.7494    0.0000 C   0  0
   -1.3092    5.2494    0.0000 C   0  0
   -2.6108    5.9949    0.0000 C   0  0
   -3.9073    5.2404    0.0000 N   0  0
   -5.2112    5.9836    0.0000 C   0  0
   -6.5072    5.2269    0.0000 C   0  0
   -7.8115    5.9678    0.0000 C   0  0
   -9.1053    5.2088    0.0000 C   0  0
   -9.0949    3.7089    0.0000 C   0  0
  -10.3895    2.9495    0.0000 S   0  0
  -10.3786    1.4495    0.0000 C   0  0
  -11.6941    3.6896    0.0000 O   0  0
  -11.6829    2.1899    0.0000 O   0  0
   -7.7907    2.9679    0.0000 C   0  0
   -6.4969    3.7269    0.0000 C   0  0
   -3.9021    3.7404    0.0000 C   0  0
   -2.6005    2.9949    0.0000 C   0  0
   -1.2990    0.7500    0.0000 N   0  0
   -1.2990   -0.7500    0.0000 C   0  0
   -2.4133   -1.7530    0.0000 C   0  0
   -1.8032   -3.1233    0.0000 C   0  0
   -0.3114   -2.9665    0.0000 N   0  0
    0.0000   -1.5000    0.0000 C   0  0
  1  2  1  0
  2  3  2  0
  3  4  1  0
  4  5  1  0
  5  6  3  0
  4  7  2  0
  7  8  1  0
  8  9  1  0
  8 10  2  0
 10  2  1  0
 10 11  1  0
 11 12  1  0
 12 13  2  0
 13 14  1  0
 14 15  1  0
 15 16  1  0
 16 17  1  0
 17 18  1  0
 18 19  1  0
 19 20  1  0
 20 21  1  0
 21 22  2  0
 22 23  1  0
 23 24  2  0
 24 25  1  0
 25 26  1  0
 25 27  2  0
 25 28  2  0
 24 29  1  0
 29 30  2  0
 30 21  1  0
 19 31  1  0
 31 32  1  0
 32 16  1  0
 14 33  2  0
 33 34  1  0
 34 35  1  0
 35 36  2  0
 36 37  1  0
 37 38  1  0
 38 12  1  0
 38 34  2  0
M  END
> <Smiles>
Cc1cc(C#N)cc(C)c1Oc1nc(NC2CCN(Cc3ccc(S(C)(=O)=O)cc3)CC2)nc2cc[nH]c12

> <IC50_uM>
0.098

> <pIC50>
7.008773924

> <Activity>
1

$$$$

  SciTegic10102310092D

 34 37  0  0  0  0            999 V2000
    2.5981   -1.5000    0.0000 C   0  0
    1.2990   -0.7500    0.0000 C   0  0
    1.2990    0.7500    0.0000 C   0  0
    0.0000    1.5000    0.0000 C   0  0
    0.0000    3.0000    0.0000 C   0  0
   -1.2990    0.7500    0.0000 C   0  0
   -2.6003    1.4977    0.0000 O   0  0
   -3.8990    0.7455    0.0000 C   0  0
   -5.2007    1.4909    0.0000 C   0  0
   -6.4972    0.7364    0.0000 C   0  0
   -7.7988    1.4819    0.0000 Cl  0  0
   -6.4920   -0.7636    0.0000 N   0  0
   -5.1903   -1.5091    0.0000 C   0  0
   -5.1821   -3.0099    0.0000 N   0  0
   -3.8787   -3.7540    0.0000 C   0  0
   -3.8682   -5.2539    0.0000 C   0  0
   -2.5640   -5.9949    0.0000 C   0  0
   -1.2702   -5.2360    0.0000 N   0  0
    0.0363   -5.9747    0.0000 C   0  0
    1.3297   -5.2135    0.0000 C   0  0
    2.6365   -5.9499    0.0000 C   0  0
    3.9277   -5.1864    0.0000 C   0  0
    3.9122   -3.6865    0.0000 C   0  0
    5.2025   -2.9200    0.0000 C   0  0
    6.5105   -3.6542    0.0000 N   0  0
    5.1848   -1.4201    0.0000 O   0  0
    2.6054   -2.9500    0.0000 C   0  0
    1.3142   -3.7135    0.0000 C   0  0
   -1.2805   -3.7360    0.0000 C   0  0
   -2.5847   -2.9950    0.0000 C   0  0
   -3.8939   -0.7546    0.0000 C   0  0
   -1.2990   -0.7500    0.0000 C   0  0
   -2.5981   -1.5000    0.0000 C   0  0
    0.0000   -1.5000    0.0000 C   0  0
  1  2  1  0
  2  3  2  0
  3  4  1  0
  4  5  1  0
  4  6  2  0
  6  7  1  0
  7  8  1  0
  8  9  2  0
  9 10  1  0
 10 11  1  0
 10 12  2  0
 12 13  1  0
 13 14  1  0
 14 15  1  0
 15 16  1  0
 16 17  1  0
 17 18  1  0
 18 19  1  0
 19 20  1  0
 20 21  2  0
 21 22  1  0
 22 23  2  0
 23 24  1  0
 24 25  1  0
 24 26  2  0
 23 27  1  0
 27 28  2  0
 28 20  1  0
 18 29  1  0
 29 30  1  0
 30 15  1  0
 13 31  2  0
 31  8  1  0
  6 32  1  0
 32 33  1  0
 32 34  2  0
 34  2  1  0
M  END
> <Smiles>
Cc1cc(C)c(Oc2cc(Cl)nc(NC3CCN(Cc4ccc(C(N)=O)cc4)CC3)c2)c(C)c1

> <IC50_uM>
0.098

> <pIC50>
7.008773924

> <Activity>
1

$$$$

  SciTegic10102310092D

 31 34  0  0  0  0            999 V2000
    3.8805   -1.4410    0.0000 O   0  0
    2.4133   -1.7530    0.0000 C   0  0
    1.2990   -0.7500    0.0000 C   0  0
    1.2990    0.7500    0.0000 C   0  0
    0.0000    1.5000    0.0000 C   0  0
   -1.2990    0.7500    0.0000 C   0  0
   -1.2990   -0.7500    0.0000 C   0  0
    0.0000   -1.5000    0.0000 C   0  0
    0.3114   -2.9665    0.0000 C   0  0
   -0.6923   -4.0811    0.0000 O   0  0
    1.8032   -3.1233    0.0000 N   0  0
    2.5551   -4.4192    0.0000 C   0  0
    4.0559   -4.4171    0.0000 C   0  0
    4.8090   -5.7153    0.0000 O   0  0
    6.3098   -5.7131    0.0000 C   0  0
    7.0575   -4.4128    0.0000 S   0  0
    7.0629   -7.0113    0.0000 N   0  0
    8.5637   -7.0091    0.0000 C   0  0
    9.3115   -5.7088    0.0000 O   0  0
    9.3168   -8.3073    0.0000 C   0  0
   10.7977   -8.4452    0.0000 C   0  0
   11.1096   -9.9124    0.0000 C   0  0
    9.8106  -10.6624    0.0000 C   0  0
    8.6958   -9.6587    0.0000 S   0  0
    6.3148   -8.3123    0.0000 C   0  0
    7.0653   -9.6112    0.0000 C   0  0
    6.3158  -10.9105    0.0000 C   0  0
    4.8158  -10.9111    0.0000 C   0  0
    4.0663  -12.2104    0.0000 F   0  0
    4.0653   -9.6124    0.0000 C   0  0
    4.8148   -8.3130    0.0000 C   0  0
  1  2  2  0
  2  3  1  0
  3  4  2  0
  4  5  1  0
  5  6  2  0
  6  7  1  0
  7  8  2  0
  8  3  1  0
  8  9  1  0
  9 10  2  0
  9 11  1  0
 11  2  1  0
 11 12  1  0
 12 13  1  0
 13 14  1  0
 14 15  1  0
 15 16  2  0
 15 17  1  0
 17 18  1  0
 18 19  2  0
 18 20  1  0
 20 21  2  0
 21 22  1  0
 22 23  2  0
 23 24  1  0
 24 20  1  0
 17 25  1  0
 25 26  2  0
 26 27  1  0
 27 28  2  0
 28 29  1  0
 28 30  1  0
 30 31  2  0
 31 25  1  0
M  END
> <Smiles>
O=C1c2ccccc2C(=O)N1CCOC(=S)N(C(=O)c1cccs1)c1ccc(F)cc1

> <IC50_uM>
0.1

> <pIC50>
7

> <Activity>
1

$$$$

  SciTegic10102310092D

 34 37  0  0  0  0            999 V2000
    2.5981   -1.5000    0.0000 C   0  0
    1.2990   -0.7500    0.0000 C   0  0
    1.2990    0.7500    0.0000 C   0  0
    2.5972    1.5031    0.0000 O   0  0
    2.5951    3.0039    0.0000 C   0  0
    1.2934    3.7495    0.0000 C   0  0
    1.2883    5.2495    0.0000 C   0  0
    2.5847    6.0040    0.0000 C   0  0
    3.8863    5.2585    0.0000 C   0  0
    3.8915    3.7585    0.0000 C   0  0
    5.1954    3.0153    0.0000 O   0  0
    6.4915    3.7721    0.0000 C   0  0
    7.7954    3.0289    0.0000 C   0  0
    9.0914    3.7857    0.0000 N   0  0
    9.0810    5.2858    0.0000 C   0  0
   10.3748    6.0448    0.0000 C   0  0
   11.6791    5.3038    0.0000 C   0  0
   12.9729    6.0629    0.0000 O   0  0
   11.6895    3.8039    0.0000 N   0  0
   10.3957    3.0449    0.0000 C   0  0
   10.4062    1.5449    0.0000 O   0  0
    0.0000    1.5000    0.0000 C   0  0
   -1.2990    0.7500    0.0000 C   0  0
   -2.5973    1.5031    0.0000 C   0  0
   -2.5951    3.0031    0.0000 C   0  0
   -3.8976    0.7553    0.0000 C   0  0
   -1.2990   -0.7500    0.0000 C   0  0
   -2.5981   -1.5000    0.0000 C   0  0
   -2.5981   -3.0000    0.0000 C   0  0
   -1.2990   -3.7500    0.0000 C   0  0
   -1.2990   -5.2508    0.0000 C   0  0
   -1.2990   -6.7508    0.0000 N   0  0
    0.0000   -3.0000    0.0000 C   0  0
    0.0000   -1.5000    0.0000 C   0  0
  1  2  1  0
  2  3  2  0
  3  4  1  0
  4  5  1  0
  5  6  2  0
  6  7  1  0
  7  8  2  0
  8  9  1  0
  9 10  2  0
 10  5  1  0
 10 11  1  0
 11 12  1  0
 12 13  1  0
 13 14  1  0
 14 15  1  0
 15 16  2  0
 16 17  1  0
 17 18  2  0
 17 19  1  0
 19 20  1  0
 20 14  1  0
 20 21  2  0
  3 22  1  0
 22 23  2  0
 23 24  1  0
 24 25  1  0
 24 26  1  0
 23 27  1  0
 27 28  2  0
 28 29  1  0
 29 30  2  0
 30 31  1  0
 31 32  3  0
 30 33  1  0
 33 34  2  0
 34  2  1  0
 34 27  1  0
M  END
> <Smiles>
Cc1c(Oc2ccccc2OCCn2ccc(=O)[nH]c2=O)cc(C(C)C)c2ccc(C#N)cc12

> <IC50_uM>
0.1

> <pIC50>
7

> <Activity>
1

$$$$

  SciTegic10102310092D

 32 35  0  0  0  0            999 V2000
    3.8805   -1.4410    0.0000 O   0  0
    2.4133   -1.7530    0.0000 C   0  0
    1.2990   -0.7500    0.0000 C   0  0
    1.2990    0.7500    0.0000 C   0  0
    0.0000    1.5000    0.0000 C   0  0
   -1.2990    0.7500    0.0000 C   0  0
   -1.2990   -0.7500    0.0000 C   0  0
    0.0000   -1.5000    0.0000 C   0  0
    0.3114   -2.9665    0.0000 C   0  0
   -0.6923   -4.0811    0.0000 O   0  0
    1.8032   -3.1233    0.0000 N   0  0
    2.5551   -4.4192    0.0000 C   0  0
    4.0559   -4.4171    0.0000 C   0  0
    4.8090   -5.7153    0.0000 O   0  0
    6.3098   -5.7131    0.0000 C   0  0
    7.0575   -4.4128    0.0000 S   0  0
    7.0629   -7.0113    0.0000 N   0  0
    8.5637   -7.0091    0.0000 C   0  0
    9.3115   -5.7088    0.0000 O   0  0
    9.3168   -8.3073    0.0000 C   0  0
   10.8169   -8.3074    0.0000 C   0  0
   11.5669   -9.6064    0.0000 C   0  0
   10.8170  -10.9054    0.0000 C   0  0
    9.3170  -10.9055    0.0000 C   0  0
    8.5669   -9.6065    0.0000 C   0  0
    6.3148   -8.3123    0.0000 C   0  0
    7.0653   -9.6112    0.0000 C   0  0
    6.3158  -10.9105    0.0000 C   0  0
    4.8158  -10.9111    0.0000 C   0  0
    4.0663  -12.2104    0.0000 Cl  0  0
    4.0653   -9.6124    0.0000 C   0  0
    4.8148   -8.3130    0.0000 C   0  0
  1  2  2  0
  2  3  1  0
  3  4  2  0
  4  5  1  0
  5  6  2  0
  6  7  1  0
  7  8  2  0
  8  3  1  0
  8  9  1  0
  9 10  2  0
  9 11  1  0
 11  2  1  0
 11 12  1  0
 12 13  1  0
 13 14  1  0
 14 15  1  0
 15 16  2  0
 15 17  1  0
 17 18  1  0
 18 19  2  0
 18 20  1  0
 20 21  2  0
 21 22  1  0
 22 23  2  0
 23 24  1  0
 24 25  2  0
 25 20  1  0
 17 26  1  0
 26 27  2  0
 27 28  1  0
 28 29  2  0
 29 30  1  0
 29 31  1  0
 31 32  2  0
 32 26  1  0
M  END
> <Smiles>
O=C1c2ccccc2C(=O)N1CCOC(=S)N(C(=O)c1ccccc1)c1ccc(Cl)cc1

> <IC50_uM>
0.1

> <pIC50>
7

> <Activity>
1

$$$$

  SciTegic10102310092D

 31 34  0  0  0  0            999 V2000
    3.1676   -7.5606    0.0000 C   0  0
    1.7006   -7.2475    0.0000 C   0  0
    0.6960   -8.3614    0.0000 C   0  0
   -0.7710   -8.0483    0.0000 C   0  0
   -1.7756   -9.1622    0.0000 C   0  0
   -1.2333   -6.6213    0.0000 C   0  0
   -0.2287   -5.5075    0.0000 C   0  0
   -0.6913   -4.0797    0.0000 S   0  0
   -2.1584   -3.7671    0.0000 O   0  0
   -1.6957   -5.1937    0.0000 O   0  0
    0.3114   -2.9665    0.0000 C   0  0
    1.8032   -3.1233    0.0000 C   0  0
    2.5551   -4.4192    0.0000 C   0  0
    1.8074   -5.7196    0.0000 O   0  0
    4.0559   -4.4171    0.0000 N   0  0
    4.8090   -5.7153    0.0000 C   0  0
    6.3098   -5.7131    0.0000 N   0  0
    7.0644   -7.0095    0.0000 C   0  0
    8.5644   -7.0043    0.0000 C   0  0
    9.3099   -5.7026    0.0000 O   0  0
    8.5554   -4.4062    0.0000 C   0  0
    7.0554   -4.4114    0.0000 C   0  0
    2.4133   -1.7530    0.0000 N   0  0
    1.2990   -0.7500    0.0000 C   0  0
    1.2990    0.7500    0.0000 C   0  0
    0.0000    1.5000    0.0000 C   0  0
   -1.2990    0.7500    0.0000 C   0  0
   -2.5981    1.5000    0.0000 Br  0  0
   -1.2990   -0.7500    0.0000 C   0  0
    0.0000   -1.5000    0.0000 C   0  0
    1.2383   -5.8206    0.0000 C   0  0
  1  2  1  0
  2  3  2  0
  3  4  1  0
  4  5  1  0
  4  6  2  0
  6  7  1  0
  7  8  1  0
  8  9  2  0
  8 10  2  0
  8 11  1  0
 11 12  2  0
 12 13  1  0
 13 14  2  0
 13 15  1  0
 15 16  1  0
 16 17  1  0
 17 18  1  0
 18 19  1  0
 19 20  1  0
 20 21  1  0
 21 22  1  0
 22 17  1  0
 12 23  1  0
 23 24  1  0
 24 25  2  0
 25 26  1  0
 26 27  2  0
 27 28  1  0
 27 29  1  0
 29 30  2  0
 30 11  1  0
 30 24  1  0
  7 31  2  0
 31  2  1  0
M  END
> <Smiles>
Cc1cc(C)cc(S(=O)(=O)c2c(C(=O)NCN3CCOCC3)[nH]c3ccc(Br)cc23)c1

> <IC50_uM>
0.1

> <pIC50>
7

> <Activity>
1

$$$$

  SciTegic10102310092D

 25 27  0  0  0  0            999 V2000
    2.5981   -1.5000    0.0000 C   0  0
    1.2990   -0.7500    0.0000 C   0  0
    1.2990    0.7500    0.0000 C   0  0
    2.5981    1.5000    0.0000 O   0  0
    0.0000    1.5000    0.0000 N   0  0
   -1.2990    0.7500    0.0000 C   0  0
   -2.6003    1.4977    0.0000 S   0  0
   -3.8990    0.7455    0.0000 C   0  0
   -5.2007    1.4909    0.0000 C   0  0
   -6.4972    0.7364    0.0000 C   0  0
   -6.4920   -0.7636    0.0000 C   0  0
   -7.7884   -1.5181    0.0000 Cl  0  0
   -5.1903   -1.5091    0.0000 C   0  0
   -3.8939   -0.7546    0.0000 C   0  0
   -1.2990   -0.7500    0.0000 N   0  0
    0.0000   -1.5000    0.0000 C   0  0
   -0.0031   -3.0008    0.0000 C   0  0
   -1.3039   -3.7494    0.0000 C   0  0
   -1.3092   -5.2494    0.0000 C   0  0
   -0.0128   -6.0039    0.0000 F   0  0
   -2.6108   -5.9949    0.0000 C   0  0
   -3.9072   -5.2404    0.0000 C   0  0
   -3.9020   -3.7404    0.0000 C   0  0
   -2.6004   -2.9949    0.0000 C   0  0
   -2.5953   -1.4949    0.0000 F   0  0
  1  2  1  0
  2  3  2  0
  3  4  1  0
  3  5  1  0
  5  6  2  0
  6  7  1  0
  7  8  1  0
  8  9  2  0
  9 10  1  0
 10 11  2  0
 11 12  1  0
 11 13  1  0
 13 14  2  0
 14  8  1  0
  6 15  1  0
 15 16  2  0
 16  2  1  0
 16 17  1  0
 17 18  1  0
 18 19  2  0
 19 20  1  0
 19 21  1  0
 21 22  2  0
 22 23  1  0
 23 24  2  0
 24 18  1  0
 24 25  1  0
M  END
> <Smiles>
Cc1c(O)nc(Sc2ccc(Cl)cc2)nc1Cc1c(F)cccc1F

> <IC50_uM>
0.1

> <pIC50>
7

> <Activity>
1

$$$$

  SciTegic10102310092D

 13 13  0  0  0  0            999 V2000
    2.5973   -1.5031    0.0000 N   0  0
    1.2990   -0.7500    0.0000 C   0  0
    1.2990    0.7500    0.0000 C   0  0
    0.0000    1.5000    0.0000 C   0  0
   -1.2990    0.7500    0.0000 C   0  0
   -2.5981    1.5000    0.0000 Cl  0  0
   -1.2990   -0.7500    0.0000 C   0  0
   -2.5981   -1.5000    0.0000 Cl  0  0
    0.0000   -1.5000    0.0000 C   0  0
    2.5951   -3.0039    0.0000 C   0  0
    1.2948   -3.7516    0.0000 O   0  0
    3.8933   -3.7570    0.0000 N   0  0
    3.8912   -5.2570    0.0000 O   0  0
  1  2  1  0
  2  3  2  0
  3  4  1  0
  4  5  2  0
  5  6  1  0
  5  7  1  0
  7  8  1  0
  7  9  2  0
  9  2  1  0
  1 10  1  0
 10 11  2  0
 10 12  1  0
 12 13  1  0
M  END
> <Smiles>
N(c1ccc(Cl)c(Cl)c1)C(=O)NO

> <IC50_uM>
0.1

> <pIC50>
7

> <Activity>
1

$$$$

  SciTegic10102310092D

 12 12  0  0  0  0            999 V2000
    2.5973   -1.5031    0.0000 N   0  0
    1.2990   -0.7500    0.0000 C   0  0
    1.2990    0.7500    0.0000 C   0  0
    0.0000    1.5000    0.0000 C   0  0
   -1.2990    0.7500    0.0000 C   0  0
   -2.5981    1.5000    0.0000 Cl  0  0
   -1.2990   -0.7500    0.0000 C   0  0
    0.0000   -1.5000    0.0000 C   0  0
    2.5951   -3.0039    0.0000 C   0  0
    1.2948   -3.7516    0.0000 O   0  0
    3.8933   -3.7570    0.0000 N   0  0
    3.8912   -5.2570    0.0000 O   0  0
  1  2  1  0
  2  3  2  0
  3  4  1  0
  4  5  2  0
  5  6  1  0
  5  7  1  0
  7  8  2  0
  8  2  1  0
  1  9  1  0
  9 10  2  0
  9 11  1  0
 11 12  1  0
M  END
> <Smiles>
N(c1ccc(Cl)cc1)C(=O)NO

> <IC50_uM>
0.1

> <pIC50>
7

> <Activity>
1

$$$$

  SciTegic10102310092D

 35 38  0  0  0  0            999 V2000
    3.8983   -0.7459    0.0000 C   0  0
    2.6003   -1.4977    0.0000 O   0  0
    1.2990   -0.7500    0.0000 C   0  0
    1.2990    0.7500    0.0000 C   0  0
    0.0000    1.5000    0.0000 C   0  0
    0.0000    3.0008    0.0000 C   0  0
    0.0000    4.5008    0.0000 N   0  0
   -1.2990    0.7500    0.0000 C   0  0
   -1.2990   -0.7500    0.0000 C   0  0
   -2.5981   -1.5000    0.0000 C   0  0
    0.0000   -1.5000    0.0000 C   0  0
    0.0031   -3.0008    0.0000 O   0  0
    1.3039   -3.7494    0.0000 C   0  0
    2.6005   -2.9949    0.0000 N   0  0
    3.9021   -3.7404    0.0000 C   0  0
    5.2008   -2.9882    0.0000 N   0  0
    6.5021   -3.7360    0.0000 C   0  0
    7.8012   -2.9860    0.0000 C   0  0
    9.1002   -3.7360    0.0000 C   0  0
    9.1002   -5.2360    0.0000 N   0  0
   10.3999   -5.9864    0.0000 C   0  0
   11.7002   -5.2385    0.0000 C   0  0
   12.9981   -5.9906    0.0000 C   0  0
   12.9957   -7.4906    0.0000 C   0  0
   11.6954   -8.2385    0.0000 C   0  0
   11.6900   -9.7394    0.0000 C   0  0
   12.9865  -10.4937    0.0000 N   0  0
   10.3887  -10.4854    0.0000 O   0  0
   10.3976   -7.4865    0.0000 C   0  0
    7.8012   -5.9860    0.0000 C   0  0
    6.5021   -5.2360    0.0000 C   0  0
    3.9073   -5.2404    0.0000 N   0  0
    2.6108   -5.9949    0.0000 C   0  0
    1.3092   -5.2494    0.0000 C   0  0
    0.0128   -6.0039    0.0000 Cl  0  0
  1  2  1  0
  2  3  1  0
  3  4  2  0
  4  5  1  0
  5  6  1  0
  6  7  3  0
  5  8  2  0
  8  9  1  0
  9 10  1  0
  9 11  2  0
 11  3  1  0
 11 12  1  0
 12 13  1  0
 13 14  2  0
 14 15  1  0
 15 16  1  0
 16 17  1  0
 17 18  1  0
 18 19  1  0
 19 20  1  0
 20 21  1  0
 21 22  2  0
 22 23  1  0
 23 24  2  0
 24 25  1  0
 25 26  1  0
 26 27  1  0
 26 28  2  0
 25 29  2  0
 29 21  1  0
 20 30  1  0
 30 31  1  0
 31 17  1  0
 15 32  2  0
 32 33  1  0
 33 34  2  0
 34 13  1  0
 34 35  1  0
M  END
> <Smiles>
COc1cc(C#N)cc(C)c1Oc1nc(NC2CCN(c3cccc(C(N)=O)c3)CC2)ncc1Cl

> <IC50_uM>
0.101

> <pIC50>
6.995678626

> <Activity>
1

$$$$

  SciTegic10102310092D

 27 30  0  0  0  0            999 V2000
    4.8689    3.5238    0.0000 O   0  0
    5.9880    2.5249    0.0000 C   0  0
    5.6819    1.0557    0.0000 C   0  0
    4.2567    0.5852    0.0000 S   0  0
    3.9511   -0.8815    0.0000 C   0  0
    4.9531   -1.9978    0.0000 N   0  0
    4.2010   -3.2956    0.0000 N   0  0
    2.7343   -2.9815    0.0000 N   0  0
    2.5987   -1.5004    0.0000 N   0  0
    1.2990   -0.7500    0.0000 C   0  0
    1.2990    0.7500    0.0000 C   0  0
    0.0000    1.5000    0.0000 C   0  0
   -1.2990    0.7500    0.0000 C   0  0
   -2.5987    1.5004    0.0000 C   0  0
   -3.2716    2.7526    0.0000 C   0  0
   -4.0195    1.4524    0.0000 C   0  0
   -1.2990   -0.7500    0.0000 C   0  0
    0.0000   -1.5000    0.0000 C   0  0
    0.0000   -3.0000    0.0000 Cl  0  0
    7.4132    2.9954    0.0000 N   0  0
    7.7193    4.4647    0.0000 C   0  0
    6.5985    5.4617    0.0000 C   0  0
    6.9014    6.9308    0.0000 C   0  0
    8.3252    7.4030    0.0000 C   0  0
    9.4460    6.4061    0.0000 C   0  0
    9.1430    4.9370    0.0000 C   0  0
   10.2639    3.9401    0.0000 Cl  0  0
  1  2  2  0
  2  3  1  0
  3  4  1  0
  4  5  1  0
  5  6  2  0
  6  7  1  0
  7  8  2  0
  8  9  1  0
  9  5  1  0
  9 10  1  0
 10 11  2  0
 11 12  1  0
 12 13  2  0
 13 14  1  0
 14 15  1  0
 15 16  1  0
 16 14  1  0
 13 17  1  0
 17 18  2  0
 18 10  1  0
 18 19  1  0
  2 20  1  0
 20 21  1  0
 21 22  2  0
 22 23  1  0
 23 24  2  0
 24 25  1  0
 25 26  2  0
 26 21  1  0
 26 27  1  0
M  END
> <Smiles>
O=C(CSc1nnnn1-c1ccc(C2CC2)cc1Cl)Nc1ccccc1Cl

> <IC50_uM>
0.103

> <pIC50>
6.987162775

> <Activity>
1

$$$$

  SciTegic10102310092D

 35 38  0  0  0  0            999 V2000
    2.5981   -1.5000    0.0000 C   0  0
    1.2990   -0.7500    0.0000 C   0  0
    1.2990    0.7500    0.0000 C   0  0
    0.0000    1.5000    0.0000 C   0  0
   -1.2990    0.7500    0.0000 C   0  0
   -2.5987    1.5004    0.0000 C   0  0
   -3.9492    0.8772    0.0000 N   0  0
   -4.9546    1.9903    0.0000 N   0  0
   -4.2067    3.2905    0.0000 S   0  0
   -2.7390    2.9810    0.0000 C   0  0
   -1.6216    3.9790    0.0000 S   0  0
   -1.9268    5.4485    0.0000 C   0  0
   -0.8074    6.4482    0.0000 C   0  0
    0.6172    5.9785    0.0000 O   0  0
   -1.1126    7.9177    0.0000 N   0  0
    0.0068    8.9174    0.0000 C   0  0
    1.4306    8.4453    0.0000 C   0  0
    2.5514    9.4422    0.0000 C   0  0
    2.2485   10.9113    0.0000 C   0  0
    3.3698   11.9087    0.0000 C   0  0
    4.7944   11.4389    0.0000 C   0  0
    5.9136   12.4375    0.0000 C   0  0
    5.6083   13.9061    0.0000 C   0  0
    6.7261   14.9077    0.0000 C   0  0
    6.4186   16.3767    0.0000 C   0  0
    7.5357   17.3777    0.0000 O   0  0
    4.9933   16.8441    0.0000 O   0  0
    4.1839   14.3761    0.0000 C   0  0
    3.0646   13.3774    0.0000 C   0  0
    0.8247   11.3835    0.0000 C   0  0
   -0.2961   10.3866    0.0000 C   0  0
   -1.7198   10.8588    0.0000 Cl  0  0
   -1.2990   -0.7500    0.0000 C   0  0
   -2.5981   -1.5000    0.0000 Cl  0  0
    0.0000   -1.5000    0.0000 C   0  0
  1  2  1  0
  2  3  2  0
  3  4  1  0
  4  5  2  0
  5  6  1  0
  6  7  1  0
  7  8  2  0
  8  9  1  0
  9 10  1  0
 10  6  2  0
 10 11  1  0
 11 12  1  0
 12 13  1  0
 13 14  2  0
 13 15  1  0
 15 16  1  0
 16 17  2  0
 17 18  1  0
 18 19  2  0
 19 20  1  0
 20 21  2  0
 21 22  1  0
 22 23  2  0
 23 24  1  0
 24 25  1  0
 25 26  2  0
 25 27  1  0
 23 28  1  0
 28 29  2  0
 29 20  1  0
 19 30  1  0
 30 31  2  0
 31 16  1  0
 31 32  1  0
  5 33  1  0
 33 34  1  0
 33 35  2  0
 35  2  1  0
M  END
> <Smiles>
Cc1ccc(-c2nnsc2SCC(=O)Nc2ccc(-c3ccc(CC(=O)O)cc3)cc2Cl)c(Cl)c1

> <IC50_uM>
0.107

> <pIC50>
6.970616222

> <Activity>
1

$$$$

  SciTegic10102310092D

 10  9  0  0  0  0            999 V2000
    0.0007    0.0004    0.0000 N   0  0
    1.3000    0.7500    0.0000 C   0  0
    2.6000    0.0000    0.0000 C   0  0
    3.9000    0.7500    0.0000 C   0  0
    5.2000    0.0000    0.0000 C   0  0
    6.5000    0.7500    0.0000 C   0  0
    7.7999    0.0000    0.0000 S   0  0
    7.7999   -1.5000    0.0000 O   0  0
    9.0992    0.7496    0.0000 O   0  0
    9.0989   -0.7502    0.0000 O   0  0
  1  2  1  0
  2  3  1  0
  3  4  1  0
  4  5  1  0
  5  6  1  0
  6  7  1  0
  7  8  1  0
  7  9  2  0
  7 10  2  0
M  END
> <Smiles>
NCCCCCS(O)(=O)=O

> <IC50_uM>
0.107151931

> <pIC50>
6.969999998

> <Activity>
1

$$$$

  SciTegic10102310092D

 28 30  0  0  0  0            999 V2000
    2.5981   -1.5000    0.0000 C   0  0
    1.2990   -0.7500    0.0000 C   0  0
    1.2990    0.7500    0.0000 C   0  0
    0.0000    1.5000    0.0000 C   0  0
    0.0000    3.0008    0.0000 C   0  0
    0.0000    4.5008    0.0000 N   0  0
   -1.2990    0.7500    0.0000 C   0  0
   -1.2990   -0.7500    0.0000 C   0  0
   -2.5981   -1.5000    0.0000 C   0  0
    0.0000   -1.5000    0.0000 C   0  0
    0.0031   -3.0008    0.0000 O   0  0
    1.3039   -3.7494    0.0000 C   0  0
    2.6005   -2.9949    0.0000 N   0  0
    3.9021   -3.7404    0.0000 C   0  0
    5.2008   -2.9882    0.0000 N   0  0
    6.5021   -3.7360    0.0000 C   0  0
    7.8012   -2.9860    0.0000 C   0  0
    9.1002   -3.7360    0.0000 C   0  0
    9.1002   -5.2360    0.0000 C   0  0
   10.4000   -5.9865    0.0000 C   0  0
   11.6990   -6.7365    0.0000 N   0  0
    7.8012   -5.9860    0.0000 C   0  0
    6.5021   -5.2360    0.0000 C   0  0
    3.9073   -5.2404    0.0000 N   0  0
    2.6108   -5.9949    0.0000 C   0  0
    2.6160   -7.4949    0.0000 N   0  0
    1.3092   -5.2494    0.0000 C   0  0
    0.0128   -6.0039    0.0000 Br  0  0
  1  2  1  0
  2  3  2  0
  3  4  1  0
  4  5  1  0
  5  6  3  0
  4  7  2  0
  7  8  1  0
  8  9  1  0
  8 10  2  0
 10  2  1  0
 10 11  1  0
 11 12  1  0
 12 13  2  0
 13 14  1  0
 14 15  1  0
 15 16  1  0
 16 17  2  0
 17 18  1  0
 18 19  2  0
 19 20  1  0
 20 21  3  0
 19 22  1  0
 22 23  2  0
 23 16  1  0
 14 24  2  0
 24 25  1  0
 25 26  1  0
 25 27  2  0
 27 12  1  0
 27 28  1  0
M  END
> <Smiles>
Cc1cc(C#N)cc(C)c1Oc1nc(Nc2ccc(C#N)cc2)nc(N)c1Br

> <IC50_uM>
0.108

> <pIC50>
6.966576245

> <Activity>
1

$$$$

  SciTegic10102310092D

 32 35  0  0  0  0            999 V2000
    3.1676   -7.5606    0.0000 C   0  0
    1.7006   -7.2475    0.0000 C   0  0
    0.6960   -8.3614    0.0000 C   0  0
   -0.7710   -8.0483    0.0000 C   0  0
   -1.7756   -9.1622    0.0000 C   0  0
   -1.2333   -6.6213    0.0000 C   0  0
   -0.2287   -5.5075    0.0000 C   0  0
   -0.6913   -4.0797    0.0000 S   0  0
   -2.1584   -3.7671    0.0000 O   0  0
   -1.6957   -5.1937    0.0000 O   0  0
    0.3114   -2.9665    0.0000 C   0  0
    1.8032   -3.1233    0.0000 C   0  0
    2.5551   -4.4192    0.0000 C   0  0
    1.8074   -5.7196    0.0000 O   0  0
    4.0559   -4.4171    0.0000 N   0  0
    4.8090   -5.7153    0.0000 C   0  0
    6.3098   -5.7131    0.0000 C   0  0
    7.0629   -7.0113    0.0000 N   0  0
    8.5630   -7.0113    0.0000 C   0  0
    9.3130   -8.3103    0.0000 C   0  0
    8.5631   -9.6094    0.0000 O   0  0
    7.0631   -9.6094    0.0000 C   0  0
    6.3130   -8.3104    0.0000 C   0  0
    2.4133   -1.7530    0.0000 N   0  0
    1.2990   -0.7500    0.0000 C   0  0
    1.2990    0.7500    0.0000 C   0  0
    0.0000    1.5000    0.0000 C   0  0
   -1.2990    0.7500    0.0000 C   0  0
   -2.5981    1.5000    0.0000 Br  0  0
   -1.2990   -0.7500    0.0000 C   0  0
    0.0000   -1.5000    0.0000 C   0  0
    1.2383   -5.8206    0.0000 C   0  0
  1  2  1  0
  2  3  2  0
  3  4  1  0
  4  5  1  0
  4  6  2  0
  6  7  1  0
  7  8  1  0
  8  9  2  0
  8 10  2  0
  8 11  1  0
 11 12  2  0
 12 13  1  0
 13 14  2  0
 13 15  1  0
 15 16  1  0
 16 17  1  0
 17 18  1  0
 18 19  1  0
 19 20  1  0
 20 21  1  0
 21 22  1  0
 22 23  1  0
 23 18  1  0
 12 24  1  0
 24 25  1  0
 25 26  2  0
 26 27  1  0
 27 28  2  0
 28 29  1  0
 28 30  1  0
 30 31  2  0
 31 11  1  0
 31 25  1  0
  7 32  2  0
 32  2  1  0
M  END
> <Smiles>
Cc1cc(C)cc(S(=O)(=O)c2c(C(=O)NCCN3CCOCC3)[nH]c3ccc(Br)cc23)c1

> <IC50_uM>
0.108

> <pIC50>
6.966576245

> <Activity>
1

$$$$

  SciTegic10102310092D

 38 41  0  0  0  0            999 V2000
    2.5981   -1.5000    0.0000 C   0  0
    1.2990   -0.7500    0.0000 C   0  0
    1.2990    0.7500    0.0000 C   0  0
    0.0000    1.5000    0.0000 C   0  0
   -0.0031    3.0008    0.0000 N   0  0
   -1.3039    3.7494    0.0000 C   0  0
   -1.3070    5.2502    0.0000 C   0  0
   -2.6078    5.9988    0.0000 C   0  0
   -2.6109    7.4996    0.0000 N   0  0
   -3.8245    8.3594    0.0000 C   0  0
   -3.3610    9.7860    0.0000 C   0  0
   -1.8610    9.7860    0.0000 C   0  0
   -1.3974    8.3594    0.0000 C   0  0
   -1.2990    0.7500    0.0000 C   0  0
   -1.2990   -0.7500    0.0000 C   0  0
    0.0000   -1.5000    0.0000 C   0  0
   -0.0031   -3.0008    0.0000 N   0  0
   -1.3039   -3.7494    0.0000 C   0  0
   -2.6016   -2.9971    0.0000 O   0  0
   -1.3070   -5.2502    0.0000 C   0  0
   -2.6078   -5.9988    0.0000 O   0  0
   -2.6109   -7.4996    0.0000 C   0  0
   -1.3118   -8.2497    0.0000 C   0  0
   -1.3119   -9.7497    0.0000 C   0  0
   -2.6109  -10.4997    0.0000 C   0  0
   -2.6110  -11.9997    0.0000 Cl  0  0
   -3.9100   -9.7497    0.0000 C   0  0
   -3.9099   -8.2497    0.0000 C   0  0
   -5.2112   -7.5019    0.0000 C   0  0
   -5.2139   -6.0019    0.0000 O   0  0
   -6.5099   -8.2542    0.0000 C   0  0
   -7.8116   -7.5088    0.0000 C   0  0
   -9.1080   -8.2633    0.0000 C   0  0
  -10.4097   -7.5178    0.0000 F   0  0
   -9.1028   -9.7633    0.0000 C   0  0
   -7.8012  -10.5088    0.0000 C   0  0
   -7.7960  -12.0088    0.0000 F   0  0
   -6.5048   -9.7543    0.0000 C   0  0
  1  2  1  0
  2  3  2  0
  3  4  1  0
  4  5  1  0
  5  6  1  0
  6  7  1  0
  7  8  1  0
  8  9  1  0
  9 10  1  0
 10 11  1  0
 11 12  1  0
 12 13  1  0
 13  9  1  0
  4 14  2  0
 14 15  1  0
 15 16  2  0
 16  2  1  0
 16 17  1  0
 17 18  1  0
 18 19  2  0
 18 20  1  0
 20 21  1  0
 21 22  1  0
 22 23  2  0
 23 24  1  0
 24 25  2  0
 25 26  1  0
 25 27  1  0
 27 28  2  0
 28 22  1  0
 28 29  1  0
 29 30  2  0
 29 31  1  0
 31 32  2  0
 32 33  1  0
 33 34  1  0
 33 35  2  0
 35 36  1  0
 36 37  1  0
 36 38  2  0
 38 31  1  0
M  END
> <Smiles>
Cc1cc(NCCCN2CCCC2)ccc1NC(=O)COc1ccc(Cl)cc1C(=O)c1cc(F)cc(F)c1

> <IC50_uM>
0.10965

> <pIC50>
6.959991364

> <Activity>
1

$$$$

  SciTegic10102310092D

 40 42  0  0  1  0            999 V2000
    4.8141   -1.7844    0.0000 C   0  0
    3.3403   -2.0633    0.0000 C   0  0
    2.3618   -0.9264    0.0000 C   0  0
    0.8871   -1.2105    0.0000 N   0  0
    0.0000    0.0000    0.0000 C   0  0  2  0  0  0
   -1.4986    0.0000    0.0000 O   0  0
   -1.9682    1.4103    0.0000 C   0  0  2  0  0  0
   -3.3980    1.8586    0.0000 C   0  0
   -4.5036    0.8435    0.0000 O   0  0
   -5.9356    1.2925    0.0000 Si  0  0
   -6.2622    2.7565    0.0000 C   0  0
   -4.8312    2.3075    0.0000 C   0  0
   -7.0412    0.2774    0.0000 C   0  0
   -8.4725    0.7262    0.0000 C   0  0
   -6.7146   -1.1866    0.0000 C   0  0
   -8.1456   -0.7376    0.0000 C   0  0
   -0.7739    2.2951    0.0000 C   0  0  2  0  0  0
   -1.9962    3.1701    0.0000 O   0  0
   -1.5432    4.6046    0.0000 S   0  0
   -0.9247    5.9712    0.0000 O   0  0
   -3.0308    4.4124    0.0000 O   0  0
   -0.0400    4.6189    0.0000 C   0  0
    0.8301    5.8408    0.0000 I   0  0
    0.4394    3.1898    0.0000 C   0  0
    1.8698    2.7381    0.0000 N   0  0
    0.4530    1.4345    0.0000 C   0  0  1  0  0  0
    1.8706    1.9191    0.0000 O   0  0
    3.0017    0.9327    0.0000 Si  0  0
    2.7127   -0.5392    0.0000 C   0  0
    2.0556    0.6088    0.0000 C   0  0
    4.4218    1.4182    0.0000 C   0  0
    5.5524    0.4323    0.0000 C   0  0
    4.7108    2.8901    0.0000 C   0  0
    5.8410    1.9041    0.0000 C   0  0
    0.3926   -2.6211    0.0000 C   0  0
   -1.0813   -2.8996    0.0000 O   0  0
    1.3710   -3.7581    0.0000 N   0  0
    0.8757   -5.1739    0.0000 C   0  0
    2.8449   -3.4792    0.0000 C   0  0
    3.8233   -4.6161    0.0000 O   0  0
  1  2  1  0
  2  3  2  0
  3  4  1  0
  5  4  1  6
  5  6  1  0
  6  7  1  0
  7  8  1  6
  8  9  1  0
  9 10  1  0
 10 11  1  0
 10 12  1  0
 10 13  1  0
 13 14  1  0
 13 15  1  0
 13 16  1  0
  7 17  1  0
 17 18  1  1
 18 19  1  0
 19 20  2  0
 19 21  2  0
 19 22  1  0
 22 23  1  0
 22 24  2  0
 24 17  1  0
 24 25  1  0
 17 26  1  0
 26  5  1  0
 26 27  1  1
 27 28  1  0
 28 29  1  0
 28 30  1  0
 28 31  1  0
 31 32  1  0
 31 33  1  0
 31 34  1  0
  4 35  1  0
 35 36  2  0
 35 37  1  0
 37 38  1  0
 37 39  1  0
 39  2  1  0
 39 40  2  0
M  END
> <Smiles>
Cc1cn([C@@H]2O[C@H](CO[Si](C)(C)C(C)(C)C)[C@@]3(OS(=O)(=O)C(I)=C3N)[C@H]2O[Si](C)(C)C(C)(C)C)c(=O)n(C)c1=O

> <IC50_uM>
0.11

> <pIC50>
6.958607315

> <Activity>
1

$$$$

  SciTegic10102310092D

 25 27  0  0  0  0            999 V2000
    3.9075   -3.7444    0.0000 C   0  0
    2.6060   -2.9986    0.0000 C   0  0
    2.6003   -1.4977    0.0000 C   0  0  3  0  0  0
    1.2990   -0.7500    0.0000 C   0  0
    1.2990    0.7500    0.0000 N   0  0
    0.0000    1.5000    0.0000 C   0  0
   -0.0031    3.0008    0.0000 S   0  0
   -1.3039    3.7494    0.0000 C   0  0
   -1.4470    5.2297    0.0000 C   0  0
   -2.9153    5.5365    0.0000 C   0  0
   -3.6607    4.2349    0.0000 C   0  0
   -2.6532    3.1236    0.0000 C   0  0
   -1.2990    0.7500    0.0000 N   0  0
   -1.2990   -0.7500    0.0000 C   0  0
   -2.5981   -1.5000    0.0000 O   0  0
    0.0000   -1.5000    0.0000 C   0  0
    0.0000   -3.0000    0.0000 C   0  0
    3.8990   -0.7455    0.0000 C   0  0
    5.2007   -1.4909    0.0000 C   0  0
    5.2060   -2.9909    0.0000 F   0  0
    6.4972   -0.7364    0.0000 C   0  0
    6.4920    0.7636    0.0000 C   0  0
    5.1903    1.5091    0.0000 C   0  0
    3.8939    0.7546    0.0000 C   0  0
    2.5923    1.5001    0.0000 F   0  0
  1  2  1  0
  3  2  1  4
  3  4  1  0
  4  5  1  0
  5  6  2  0
  6  7  1  0
  7  8  1  0
  8  9  1  0
  9 10  1  0
 10 11  1  0
 11 12  1  0
 12  8  1  0
  6 13  1  0
 13 14  1  0
 14 15  2  0
 14 16  1  0
 16  4  2  0
 16 17  1  0
  3 18  1  0
 18 19  2  0
 19 20  1  0
 19 21  1  0
 21 22  2  0
 22 23  1  0
 23 24  2  0
 24 18  1  0
 24 25  1  0
M  END
> <Smiles>
CCC(c1nc(SC2CCCC2)[nH]c(=O)c1C)c1c(F)cccc1F

> <IC50_uM>
0.11

> <pIC50>
6.958607315

> <Activity>
1

$$$$

  SciTegic10102310092D

 23 24  0  0  0  0            999 V2000
    3.9075   -3.7444    0.0000 C   0  0
    2.6060   -2.9986    0.0000 O   0  0
    2.6003   -1.4977    0.0000 C   0  0  3  0  0  0
    1.2990   -0.7500    0.0000 C   0  0
    1.2990    0.7500    0.0000 N   0  0
    0.0000    1.5000    0.0000 C   0  0
   -0.0031    3.0008    0.0000 N   0  0
   -1.3039    3.7494    0.0000 C   0  0
   -1.3070    5.2494    0.0000 C   0  0
   -2.6017    2.9971    0.0000 C   0  0
   -1.2990    0.7500    0.0000 N   0  0
   -1.2990   -0.7500    0.0000 C   0  0
   -2.5981   -1.5000    0.0000 O   0  0
    0.0000   -1.5000    0.0000 C   0  0
    0.0000   -3.0000    0.0000 C   0  0
    3.8990   -0.7455    0.0000 C   0  0
    5.2007   -1.4909    0.0000 C   0  0
    5.2060   -2.9909    0.0000 F   0  0
    6.4972   -0.7364    0.0000 C   0  0
    6.4920    0.7636    0.0000 C   0  0
    5.1903    1.5091    0.0000 C   0  0
    3.8939    0.7546    0.0000 C   0  0
    2.5923    1.5001    0.0000 Cl  0  0
  1  2  1  0
  3  2  1  4
  3  4  1  0
  4  5  1  0
  5  6  2  0
  6  7  1  0
  7  8  1  0
  8  9  1  0
  8 10  1  0
  6 11  1  0
 11 12  1  0
 12 13  2  0
 12 14  1  0
 14  4  2  0
 14 15  1  0
  3 16  1  0
 16 17  2  0
 17 18  1  0
 17 19  1  0
 19 20  2  0
 20 21  1  0
 21 22  2  0
 22 16  1  0
 22 23  1  0
M  END
> <Smiles>
COC(c1nc(NC(C)C)[nH]c(=O)c1C)c1c(F)cccc1Cl

> <IC50_uM>
0.11

> <pIC50>
6.958607315

> <Activity>
1

$$$$

  SciTegic10102310092D

 47 52  0  0  0  0            999 V2000
    2.5923    1.5001    0.0000 C   0  0
    3.8939    0.7546    0.0000 C   0  0
    5.1903    1.5091    0.0000 C   0  0
    6.4920    0.7636    0.0000 C   0  0
    7.7891    1.5185    0.0000 C   0  0
    9.0856    2.2729    0.0000 N   0  0
    6.4972   -0.7364    0.0000 C   0  0
    5.2007   -1.4909    0.0000 C   0  0
    5.2059   -2.9909    0.0000 C   0  0
    3.8990   -0.7455    0.0000 C   0  0
    2.6003   -1.4977    0.0000 O   0  0
    1.2990   -0.7500    0.0000 C   0  0
    1.2990    0.7500    0.0000 N   0  0
    0.0000    1.5000    0.0000 C   0  0
   -0.0031    3.0008    0.0000 N   0  0
   -1.3039    3.7494    0.0000 C   0  0
   -1.3092    5.2494    0.0000 C   0  0
   -2.6108    5.9949    0.0000 C   0  0
   -3.9073    5.2404    0.0000 N   0  0
   -5.2112    5.9836    0.0000 C   0  0
   -6.5072    5.2269    0.0000 C   0  0
   -7.8115    5.9678    0.0000 C   0  0
   -9.1053    5.2088    0.0000 C   0  0
   -9.0949    3.7089    0.0000 C   0  0
  -10.3895    2.9495    0.0000 S   0  0
  -10.3786    1.4495    0.0000 N   0  0
  -11.6941    3.6896    0.0000 O   0  0
  -11.6829    2.1899    0.0000 O   0  0
   -7.7907    2.9679    0.0000 C   0  0
   -6.4969    3.7269    0.0000 C   0  0
   -3.9021    3.7404    0.0000 C   0  0
   -2.6005    2.9949    0.0000 C   0  0
   -1.2990    0.7500    0.0000 N   0  0
   -1.2990   -0.7500    0.0000 C   0  0
   -2.4133   -1.7530    0.0000 C   0  0
   -1.8032   -3.1233    0.0000 C   0  0
   -0.3114   -2.9665    0.0000 N   0  0
    0.6913   -4.0797    0.0000 S   0  0
    2.1584   -3.7671    0.0000 O   0  0
    1.1543   -2.6529    0.0000 O   0  0
    0.2287   -5.5075    0.0000 C   0  0
    1.2334   -6.6213    0.0000 C   0  0
    0.7710   -8.0483    0.0000 C   0  0
   -0.6959   -8.3614    0.0000 C   0  0
   -1.7006   -7.2475    0.0000 C   0  0
   -1.2382   -5.8206    0.0000 C   0  0
    0.0000   -1.5000    0.0000 C   0  0
  1  2  1  0
  2  3  2  0
  3  4  1  0
  4  5  1  0
  5  6  3  0
  4  7  2  0
  7  8  1  0
  8  9  1  0
  8 10  2  0
 10  2  1  0
 10 11  1  0
 11 12  1  0
 12 13  2  0
 13 14  1  0
 14 15  1  0
 15 16  1  0
 16 17  1  0
 17 18  1  0
 18 19  1  0
 19 20  1  0
 20 21  1  0
 21 22  2  0
 22 23  1  0
 23 24  2  0
 24 25  1  0
 25 26  1  0
 25 27  2  0
 25 28  2  0
 24 29  1  0
 29 30  2  0
 30 21  1  0
 19 31  1  0
 31 32  1  0
 32 16  1  0
 14 33  2  0
 33 34  1  0
 34 35  1  0
 35 36  2  0
 36 37  1  0
 37 38  1  0
 38 39  2  0
 38 40  2  0
 38 41  1  0
 41 42  2  0
 42 43  1  0
 43 44  2  0
 44 45  1  0
 45 46  2  0
 46 41  1  0
 37 47  1  0
 47 12  1  0
 47 34  2  0
M  END
> <Smiles>
Cc1cc(C#N)cc(C)c1Oc1nc(NC2CCN(Cc3ccc(S(N)(=O)=O)cc3)CC2)nc2ccn(S(=O)(=O)c3ccccc3)c12

> <IC50_uM>
0.11

> <pIC50>
6.958607315

> <Activity>
1

$$$$

  SciTegic10102310092D

 12 11  0  0  0  0            999 V2000
    7.7999   -1.5000    0.0000 C   0  0
    7.7999    0.0000    0.0000 N   0  0
    6.5000    0.7500    0.0000 C   0  0
    5.2000    0.0000    0.0000 C   0  0
    3.9000    0.7500    0.0000 C   0  0
    2.6000    0.0000    0.0000 C   0  0
    1.3000    0.7500    0.0000 N   0  0
    0.0007    0.0004    0.0000 C   0  0
    9.0999    0.7500    0.0000 N   0  3
   10.3999    0.0000    0.0000 N   0  5
   11.6992    0.7496    0.0000 O   0  0
    9.0999    2.2500    0.0000 O   0  0
  1  2  1  0
  2  3  1  0
  3  4  1  0
  4  5  1  0
  5  6  1  0
  6  7  1  0
  7  8  1  0
  2  9  1  0
  9 10  1  0
 10 11  1  0
  9 12  2  0
M  CHG  2   9   1  10  -1
M  END
> <Smiles>
CN(CCCCNC)[N+]([N-]O)=O

> <IC50_uM>
0.112201845

> <pIC50>
6.950000002

> <Activity>
1

$$$$

  SciTegic10102310092D

 12 11  0  0  0  0            999 V2000
    3.8930   -3.7494    0.0000 C   0  0
    3.8961   -2.2494    0.0000 C   0  0
    5.1969   -1.5008    0.0000 C   0  0
    5.2000    0.0000    0.0000 N   0  0
    3.9000    0.7500    0.0000 C   0  0
    2.6000    0.0000    0.0000 C   0  0
    1.3000    0.7500    0.0000 C   0  0
    0.0007    0.0004    0.0000 N   0  0
    6.5000    0.7500    0.0000 N   0  3
    7.7999    0.0000    0.0000 N   0  5
    9.0992    0.7496    0.0000 O   0  0
    6.5000    2.2500    0.0000 O   0  0
  1  2  1  0
  2  3  1  0
  3  4  1  0
  4  5  1  0
  5  6  1  0
  6  7  1  0
  7  8  1  0
  4  9  1  0
  9 10  1  0
 10 11  1  0
  9 12  2  0
M  CHG  2   9   1  10  -1
M  END
> <Smiles>
CCCN(CCCN)[N+]([N-]O)=O

> <IC50_uM>
0.112201845

> <pIC50>
6.950000002

> <Activity>
1

$$$$

  SciTegic10102310092D

 36 39  0  0  0  0            999 V2000
    2.5951   -3.0031    0.0000 C   0  0
    2.5973   -1.5031    0.0000 O   0  0
    1.2990   -0.7500    0.0000 C   0  0
    1.2990    0.7500    0.0000 C   0  0
    0.0000    1.5000    0.0000 C   0  0
   -0.0031    3.0008    0.0000 O   0  0
   -1.3039    3.7494    0.0000 C   0  0
   -1.3092    5.2494    0.0000 C   0  0
   -0.0128    6.0039    0.0000 C   0  0
   -2.6108    5.9949    0.0000 C   0  0
   -3.9073    5.2404    0.0000 C   0  0
   -5.2096    5.9863    0.0000 C   0  0
   -6.5112    6.7318    0.0000 N   0  0
   -3.9021    3.7404    0.0000 C   0  0
   -2.6005    2.9949    0.0000 C   0  0
   -2.5953    1.4949    0.0000 C   0  0
   -1.2990    0.7500    0.0000 C   0  0
   -1.2990   -0.7500    0.0000 C   0  0
   -2.5972   -1.5031    0.0000 N   0  0
   -2.5951   -3.0039    0.0000 C   0  0
   -3.8915   -3.7585    0.0000 C   0  0
   -3.8863   -5.2585    0.0000 C   0  0
   -2.5847   -6.0040    0.0000 N   0  0
   -2.5764   -7.5048    0.0000 C   0  0
   -1.2730   -8.2489    0.0000 C   0  0
   -1.2625   -9.7489    0.0000 C   0  0
    0.0417  -10.4898    0.0000 C   0  0
    1.3355   -9.7309    0.0000 C   0  0
    2.6419  -10.4696    0.0000 C   0  0
    2.6549  -11.9695    0.0000 N   0  0
    3.9347   -9.7088    0.0000 O   0  0
    1.3251   -8.2309    0.0000 C   0  0
    0.0209   -7.4899    0.0000 C   0  0
   -1.2883   -5.2495    0.0000 C   0  0
   -1.2935   -3.7495    0.0000 C   0  0
    0.0000   -1.5000    0.0000 N   0  0
  1  2  1  0
  2  3  1  0
  3  4  2  0
  4  5  1  0
  5  6  1  0
  6  7  1  0
  7  8  2  0
  8  9  1  0
  8 10  1  0
 10 11  2  0
 11 12  1  0
 12 13  3  0
 11 14  1  0
 14 15  2  0
 15  7  1  0
 15 16  1  0
  5 17  2  0
 17 18  1  0
 18 19  1  0
 19 20  1  0
 20 21  1  0
 21 22  1  0
 22 23  1  0
 23 24  1  0
 24 25  1  0
 25 26  2  0
 26 27  1  0
 27 28  2  0
 28 29  1  0
 29 30  1  0
 29 31  2  0
 28 32  1  0
 32 33  2  0
 33 25  1  0
 23 34  1  0
 34 35  1  0
 35 20  1  0
 18 36  2  0
 36  3  1  0
M  END
> <Smiles>
COc1cc(Oc2c(C)cc(C#N)cc2C)cc(NC2CCN(Cc3ccc(C(N)=O)cc3)CC2)n1

> <IC50_uM>
0.113

> <pIC50>
6.946921557

> <Activity>
1

$$$$

  SciTegic10102310092D

 31 32  0  0  0  0            999 V2000
    6.6861   -4.4316    0.0000 C   0  0
    5.8065   -3.2166    0.0000 C   0  0
    4.9531   -1.9978    0.0000 C   0  0  3  0  0  0
    5.5384   -0.6303    0.0000 C   0  0
    4.6587    0.5856    0.0000 O   0  0
    5.2710    1.9559    0.0000 P   0  0
    6.1508    0.7410    0.0000 O   0  0
    6.7630    2.1102    0.0000 O   0  0
    4.3912    3.1718    0.0000 O   0  0
    5.0035    4.5421    0.0000 P   0  0
    5.8834    3.3272    0.0000 O   0  0
    6.4956    4.6963    0.0000 O   0  0
    4.1238    5.7580    0.0000 O   0  0
    4.7361    7.1282    0.0000 P   0  0
    3.8568    8.3435    0.0000 O   0  0
    5.3487    8.4974    0.0000 O   0  0
    6.2281    7.2825    0.0000 O   0  0
    3.9511   -0.8815    0.0000 C   0  0
    2.5987   -1.5004    0.0000 C   0  0  3  0  0  0
    1.2990   -0.7500    0.0000 N   0  0
    1.2990    0.7500    0.0000 C   0  0
    0.0000    1.5000    0.0000 C   0  0
    0.0000    3.0000    0.0000 C   0  0
   -1.2990    0.7500    0.0000 C   0  0
   -2.5981    1.5000    0.0000 O   0  0
   -1.2990   -0.7500    0.0000 N   0  0
    0.0000   -1.5000    0.0000 C   0  0
    0.0000   -3.0000    0.0000 O   0  0
    2.7343   -2.9815    0.0000 C   0  0
    4.2010   -3.2956    0.0000 C   0  0  3  0  0  0
    4.8089   -4.6669    0.0000 O   0  0
  1  2  3  0
  3  2  1  4
  3  4  1  0
  4  5  1  0
  5  6  1  0
  6  7  2  0
  6  8  1  0
  6  9  1  0
  9 10  1  0
 10 11  2  0
 10 12  1  0
 10 13  1  0
 13 14  1  0
 14 15  2  0
 14 16  1  0
 14 17  1  0
  3 18  1  0
 18 19  1  0
 19 20  1  4
 20 21  1  0
 21 22  2  0
 22 23  1  0
 22 24  1  0
 24 25  2  0
 24 26  1  0
 26 27  1  0
 27 20  1  0
 27 28  2  0
 19 29  1  0
 29 30  1  0
 30  3  1  0
 30 31  1  4
M  END
> <Smiles>
C#CC1(COP(=O)(O)OP(=O)(O)OP(=O)(O)O)CC(n2cc(C)c(=O)[nH]c2=O)CC1O

> <IC50_uM>
0.114

> <pIC50>
6.943095149

> <Activity>
1

$$$$

  SciTegic10102310092D

 31 34  0  0  0  0            999 V2000
    3.1676   -7.5606    0.0000 C   0  0
    1.7006   -7.2475    0.0000 C   0  0
    0.6960   -8.3614    0.0000 C   0  0
   -0.7710   -8.0483    0.0000 C   0  0
   -1.7756   -9.1622    0.0000 C   0  0
   -1.2333   -6.6213    0.0000 C   0  0
   -0.2287   -5.5075    0.0000 C   0  0
   -0.6913   -4.0797    0.0000 S   0  0
   -2.1584   -3.7671    0.0000 O   0  0
   -1.6957   -5.1937    0.0000 O   0  0
    0.3114   -2.9665    0.0000 C   0  0
    1.8032   -3.1233    0.0000 C   0  0
    2.5551   -4.4192    0.0000 C   0  0
    1.8074   -5.7196    0.0000 O   0  0
    4.0559   -4.4171    0.0000 N   0  0
    4.8090   -5.7153    0.0000 C   0  0
    6.3098   -5.7131    0.0000 N   0  0
    7.0644   -7.0095    0.0000 C   0  0
    8.5644   -7.0043    0.0000 C   0  0
    9.3099   -5.7026    0.0000 O   0  0
    8.5554   -4.4062    0.0000 C   0  0
    7.0554   -4.4114    0.0000 C   0  0
    2.4133   -1.7530    0.0000 N   0  0
    1.2990   -0.7500    0.0000 C   0  0
    1.2990    0.7500    0.0000 C   0  0
    0.0000    1.5000    0.0000 C   0  0
   -1.2990    0.7500    0.0000 C   0  0
   -2.5981    1.5000    0.0000 Cl  0  0
   -1.2990   -0.7500    0.0000 C   0  0
    0.0000   -1.5000    0.0000 C   0  0
    1.2383   -5.8206    0.0000 C   0  0
  1  2  1  0
  2  3  2  0
  3  4  1  0
  4  5  1  0
  4  6  2  0
  6  7  1  0
  7  8  1  0
  8  9  2  0
  8 10  2  0
  8 11  1  0
 11 12  2  0
 12 13  1  0
 13 14  2  0
 13 15  1  0
 15 16  1  0
 16 17  1  0
 17 18  1  0
 18 19  1  0
 19 20  1  0
 20 21  1  0
 21 22  1  0
 22 17  1  0
 12 23  1  0
 23 24  1  0
 24 25  2  0
 25 26  1  0
 26 27  2  0
 27 28  1  0
 27 29  1  0
 29 30  2  0
 30 11  1  0
 30 24  1  0
  7 31  2  0
 31  2  1  0
M  END
> <Smiles>
Cc1cc(C)cc(S(=O)(=O)c2c(C(=O)NCN3CCOCC3)[nH]c3ccc(Cl)cc23)c1

> <IC50_uM>
0.117

> <pIC50>
6.931814138

> <Activity>
1

$$$$

  SciTegic10102310092D

 13 13  0  0  0  0            999 V2000
    1.2990   -0.7500    0.0000 C   0  0
    2.5981   -1.5000    0.0000 O   0  0
    1.2990    0.7500    0.0000 C   0  0
    2.5972    1.5031    0.0000 O   0  0
    2.5951    3.0031    0.0000 C   0  0
    0.0000    1.5000    0.0000 C   0  0
   -1.2990    0.7500    0.0000 C   0  0
   -2.6003    1.4977    0.0000 C   0  0
   -3.8990    0.7455    0.0000 N   0  0
   -5.1996    1.4928    0.0000 O   0  0
   -2.6030    2.9977    0.0000 O   0  0
   -1.2990   -0.7500    0.0000 C   0  0
    0.0000   -1.5000    0.0000 C   0  0
  1  2  1  0
  1  3  2  0
  3  4  1  0
  4  5  1  0
  3  6  1  0
  6  7  2  0
  7  8  1  0
  8  9  1  0
  9 10  1  0
  8 11  2  0
  7 12  1  0
 12 13  2  0
 13  1  1  0
M  END
> <Smiles>
c1(O)c(OC)cc(C(NO)=O)cc1

> <IC50_uM>
0.117489755

> <pIC50>
6.930000002

> <Activity>
1

$$$$

  SciTegic10102310092D

 24 25  0  0  0  0            999 V2000
    3.8912   -5.2570    0.0000 C   0  0
    3.8933   -3.7570    0.0000 C   0  0
    2.5951   -3.0039    0.0000 C   0  0  3  0  0  0
    1.2948   -3.7516    0.0000 C   0  0
    2.5973   -1.5031    0.0000 S   0  0
    1.2990   -0.7500    0.0000 C   0  0
    1.2990    0.7500    0.0000 N   0  0
    0.0000    1.5000    0.0000 C   0  0
    0.0031    3.0008    0.0000 C   0  0  3  0  0  0
   -1.2938    3.7562    0.0000 C   0  0
   -1.2891    5.2562    0.0000 C   0  0
    1.3039    3.7494    0.0000 C   0  0
    1.3092    5.2494    0.0000 C   0  0
    0.0127    6.0039    0.0000 F   0  0
    2.6108    5.9949    0.0000 C   0  0
    3.9072    5.2405    0.0000 C   0  0
    3.9020    3.7405    0.0000 C   0  0
    2.6004    2.9949    0.0000 C   0  0
    2.5953    1.4950    0.0000 Cl  0  0
   -1.2990    0.7500    0.0000 C   0  0
   -2.5981    1.5000    0.0000 C   0  0
   -1.2990   -0.7500    0.0000 C   0  0
   -2.5981   -1.5000    0.0000 O   0  0
    0.0000   -1.5000    0.0000 N   0  0
  1  2  1  0
  2  3  1  0
  3  4  1  4
  3  5  1  0
  5  6  1  0
  6  7  2  0
  7  8  1  0
  8  9  1  0
  9 10  1  4
 10 11  1  0
  9 12  1  0
 12 13  2  0
 13 14  1  0
 13 15  1  0
 15 16  2  0
 16 17  1  0
 17 18  2  0
 18 12  1  0
 18 19  1  0
  8 20  2  0
 20 21  1  0
 20 22  1  0
 22 23  2  0
 22 24  1  0
 24  6  1  0
M  END
> <Smiles>
CCC(C)Sc1nc(C(CC)c2c(F)cccc2Cl)c(C)c(=O)[nH]1

> <IC50_uM>
0.12

> <pIC50>
6.920818754

> <Activity>
1

$$$$

  SciTegic10102310092D

 23 24  0  0  0  0            999 V2000
    3.8912   -5.2570    0.0000 C   0  0
    3.8933   -3.7570    0.0000 C   0  0
    2.5951   -3.0039    0.0000 C   0  0
    2.5973   -1.5031    0.0000 N   0  0
    1.2990   -0.7500    0.0000 C   0  0
    1.2990    0.7500    0.0000 N   0  0
    0.0000    1.5000    0.0000 C   0  0
    0.0031    3.0008    0.0000 C   0  0  3  0  0  0
   -1.2938    3.7562    0.0000 O   0  0
   -1.2891    5.2562    0.0000 C   0  0
    1.3039    3.7494    0.0000 C   0  0
    1.3092    5.2494    0.0000 C   0  0
    0.0127    6.0039    0.0000 Cl  0  0
    2.6108    5.9949    0.0000 C   0  0
    3.9072    5.2405    0.0000 C   0  0
    3.9020    3.7405    0.0000 C   0  0
    2.6004    2.9949    0.0000 C   0  0
    2.5953    1.4950    0.0000 Cl  0  0
   -1.2990    0.7500    0.0000 C   0  0
   -2.5981    1.5000    0.0000 C   0  0
   -1.2990   -0.7500    0.0000 C   0  0
   -2.5981   -1.5000    0.0000 O   0  0
    0.0000   -1.5000    0.0000 N   0  0
  1  2  1  0
  2  3  1  0
  3  4  1  0
  4  5  1  0
  5  6  2  0
  6  7  1  0
  7  8  1  0
  8  9  1  4
  9 10  1  0
  8 11  1  0
 11 12  2  0
 12 13  1  0
 12 14  1  0
 14 15  2  0
 15 16  1  0
 16 17  2  0
 17 11  1  0
 17 18  1  0
  7 19  2  0
 19 20  1  0
 19 21  1  0
 21 22  2  0
 21 23  1  0
 23  5  1  0
M  END
> <Smiles>
CCCNc1nc(C(OC)c2c(Cl)cccc2Cl)c(C)c(=O)[nH]1

> <IC50_uM>
0.12

> <pIC50>
6.920818754

> <Activity>
1

$$$$

  SciTegic10102310092D

 21 23  0  0  0  0            999 V2000
    1.8073   -5.7196    0.0000 N   0  0
    2.5551   -4.4192    0.0000 C   0  0
    4.0551   -4.4171    0.0000 O   0  0
    1.8032   -3.1233    0.0000 C   0  0
    2.4133   -1.7530    0.0000 N   0  0
    1.2990   -0.7500    0.0000 C   0  0
    1.2990    0.7500    0.0000 C   0  0
    0.0000    1.5000    0.0000 C   0  0
   -1.2990    0.7500    0.0000 C   0  0
   -2.5981    1.5000    0.0000 Br  0  0
   -1.2990   -0.7500    0.0000 C   0  0
    0.0000   -1.5000    0.0000 C   0  0
    0.3114   -2.9665    0.0000 C   0  0
   -0.6913   -4.0797    0.0000 S   0  0
   -0.2276   -5.5062    0.0000 O   0  0
    0.7759   -4.3916    0.0000 O   0  0
   -2.1595   -3.7683    0.0000 N   0  0
   -3.2523   -4.7770    0.0000 C   0  0
   -4.5516   -4.0276    0.0000 C   0  0
   -4.2404   -2.5602    0.0000 C   0  0
   -2.7487   -2.4028    0.0000 C   0  0
  1  2  1  0
  2  3  2  0
  2  4  1  0
  4  5  1  0
  5  6  1  0
  6  7  2  0
  7  8  1  0
  8  9  2  0
  9 10  1  0
  9 11  1  0
 11 12  2  0
 12  6  1  0
 12 13  1  0
 13  4  2  0
 13 14  1  0
 14 15  2  0
 14 16  2  0
 14 17  1  0
 17 18  1  0
 18 19  1  0
 19 20  1  0
 20 21  1  0
 21 17  1  0
M  END
> <Smiles>
NC(=O)c1[nH]c2ccc(Br)cc2c1S(=O)(=O)N1CCCC1

> <IC50_uM>
0.12

> <pIC50>
6.920818754

> <Activity>
1

$$$$

  SciTegic10102310092D

 32 35  0  0  0  0            999 V2000
    2.5981   -1.5000    0.0000 C   0  0
    1.2990   -0.7500    0.0000 C   0  0
    1.2990    0.7500    0.0000 C   0  0
    0.0000    1.5000    0.0000 C   0  0
    0.0031    3.0008    0.0000 O   0  0
    1.3039    3.7494    0.0000 C   0  0
    2.6004    2.9949    0.0000 C   0  0
    3.9020    3.7405    0.0000 C   0  0
    3.9072    5.2405    0.0000 C   0  0
    2.6108    5.9949    0.0000 C   0  0
    1.3092    5.2494    0.0000 C   0  0
    0.0136    6.0070    0.0000 O   0  0
    0.0209    7.5078    0.0000 C   0  0
   -1.2746    8.2654    0.0000 C   0  0
   -1.2673    9.7662    0.0000 N   0  0
    0.0370   10.5073    0.0000 C   0  0
    0.0474   12.0073    0.0000 C   0  0
   -1.2464   12.7663    0.0000 C   0  0
   -1.2360   14.2662    0.0000 O   0  0
   -2.5506   12.0253    0.0000 N   0  0
   -2.5610   10.5253    0.0000 C   0  0
   -3.8653    9.7844    0.0000 O   0  0
   -1.2990    0.7500    0.0000 C   0  0
   -2.5981    1.5000    0.0000 Cl  0  0
   -1.2990   -0.7500    0.0000 C   0  0
   -2.5981   -1.5000    0.0000 C   0  0
   -2.5981   -3.0000    0.0000 C   0  0
   -3.8978   -3.7504    0.0000 C   0  0
   -5.1968   -4.5004    0.0000 N   0  0
   -1.2990   -3.7500    0.0000 C   0  0
    0.0000   -3.0000    0.0000 C   0  0
    0.0000   -1.5000    0.0000 C   0  0
  1  2  1  0
  2  3  2  0
  3  4  1  0
  4  5  1  0
  5  6  1  0
  6  7  2  0
  7  8  1  0
  8  9  2  0
  9 10  1  0
 10 11  2  0
 11  6  1  0
 11 12  1  0
 12 13  1  0
 13 14  1  0
 14 15  1  0
 15 16  1  0
 16 17  2  0
 17 18  1  0
 18 19  2  0
 18 20  1  0
 20 21  1  0
 21 15  1  0
 21 22  2  0
  4 23  2  0
 23 24  1  0
 23 25  1  0
 25 26  2  0
 26 27  1  0
 27 28  1  0
 28 29  3  0
 27 30  2  0
 30 31  1  0
 31 32  2  0
 32  2  1  0
 32 25  1  0
M  END
> <Smiles>
Cc1cc(Oc2ccccc2OCCn2ccc(=O)[nH]c2=O)c(Cl)c2cc(C#N)ccc12

> <IC50_uM>
0.12

> <pIC50>
6.920818754

> <Activity>
1

$$$$

  SciTegic10102310092D

 36 39  0  0  0  0            999 V2000
    3.1676   -7.5606    0.0000 C   0  0
    1.7006   -7.2475    0.0000 C   0  0
    0.6960   -8.3614    0.0000 C   0  0
   -0.7710   -8.0483    0.0000 C   0  0
   -1.7756   -9.1622    0.0000 C   0  0
   -1.2333   -6.6213    0.0000 C   0  0
   -0.2287   -5.5075    0.0000 C   0  0
   -0.6913   -4.0797    0.0000 S   0  0
   -2.1584   -3.7671    0.0000 O   0  0
   -1.6957   -5.1937    0.0000 O   0  0
    0.3114   -2.9665    0.0000 N   0  0
    1.8032   -3.1233    0.0000 C   0  0
    2.5551   -4.4192    0.0000 S   0  0
    4.0559   -4.4171    0.0000 C   0  0
    4.8090   -5.7153    0.0000 C   0  0
    4.0613   -7.0156    0.0000 O   0  0
    6.3098   -5.7131    0.0000 N   0  0
    7.0629   -7.0113    0.0000 C   0  0
    6.3130   -8.3104    0.0000 C   0  0
    7.0631   -9.6094    0.0000 C   0  0
    8.5631   -9.6094    0.0000 C   0  0
    9.3136  -10.9091    0.0000 S   0  0
   10.8136  -10.9085    0.0000 C   0  0
    8.5645  -12.2086    0.0000 O   0  0
   10.0643  -12.2077    0.0000 O   0  0
    9.3130   -8.3103    0.0000 C   0  0
    8.5630   -7.0113    0.0000 C   0  0
    9.3129   -5.7122    0.0000 Cl  0  0
    2.4133   -1.7530    0.0000 N   0  0
    1.2990   -0.7500    0.0000 C   0  0
    1.2990    0.7500    0.0000 C   0  0
    0.0000    1.5000    0.0000 C   0  0
   -1.2990    0.7500    0.0000 C   0  0
   -1.2990   -0.7500    0.0000 C   0  0
    0.0000   -1.5000    0.0000 C   0  0
    1.2383   -5.8206    0.0000 C   0  0
  1  2  1  0
  2  3  2  0
  3  4  1  0
  4  5  1  0
  4  6  2  0
  6  7  1  0
  7  8  1  0
  8  9  2  0
  8 10  2  0
  8 11  1  0
 11 12  1  0
 12 13  1  0
 13 14  1  0
 14 15  1  0
 15 16  2  0
 15 17  1  0
 17 18  1  0
 18 19  2  0
 19 20  1  0
 20 21  2  0
 21 22  1  0
 22 23  1  0
 22 24  2  0
 22 25  2  0
 21 26  1  0
 26 27  2  0
 27 18  1  0
 27 28  1  0
 12 29  2  0
 29 30  1  0
 30 31  2  0
 31 32  1  0
 32 33  2  0
 33 34  1  0
 34 35  2  0
 35 30  1  0
 35 11  1  0
  7 36  2  0
 36  2  1  0
M  END
> <Smiles>
Cc1cc(C)cc(S(=O)(=O)n2c(SCC(=O)Nc3ccc(S(C)(=O)=O)cc3Cl)nc3ccccc32)c1

> <IC50_uM>
0.12

> <pIC50>
6.920818754

> <Activity>
1

$$$$

  SciTegic10102310092D

 19 20  0  0  0  0            999 V2000
    3.8983   -0.7459    0.0000 C   0  0
    2.6003   -1.4977    0.0000 O   0  0
    1.2990   -0.7500    0.0000 C   0  0
    1.2990    0.7500    0.0000 C   0  0
    0.0000    1.5000    0.0000 C   0  0
    0.0000    3.0000    0.0000 O   0  0
   -1.2991    3.7500    0.0000 C   0  0
   -1.2991    5.2500    0.0000 O   0  0
   -2.5981    3.0000    0.0000 C   0  0
   -2.5981    1.5000    0.0000 C   0  0
   -1.2990    0.7500    0.0000 C   0  0
   -1.2990   -0.7500    0.0000 C   0  0
    0.0000   -1.5000    0.0000 C   0  0
   -0.0031   -3.0008    0.0000 C   0  0
   -1.3039   -3.7494    0.0000 C   0  0
   -2.6016   -2.9971    0.0000 O   0  0
   -1.3070   -5.2502    0.0000 C   0  0
   -2.6071   -5.9984    0.0000 C   0  0
   -0.0092   -6.0025    0.0000 C   0  0
  1  2  1  0
  2  3  1  0
  3  4  2  0
  4  5  1  0
  5  6  1  0
  6  7  1  0
  7  8  2  0
  7  9  1  0
  9 10  2  0
 10 11  1  0
 11  5  2  0
 11 12  1  0
 12 13  2  0
 13  3  1  0
 13 14  1  0
 14 15  1  0
 15 16  2  0
 15 17  1  0
 17 18  1  0
 17 19  1  0
M  END
> <Smiles>
COc1cc2oc(=O)ccc2cc1CC(=O)C(C)C

> <IC50_uM>
0.12

> <pIC50>
6.920818754

> <Activity>
1

$$$$

  SciTegic10102310092D

 27 30  0  0  0  0            999 V2000
   -3.7619  -11.3931    0.0000 C   0  0
   -2.2948  -11.7053    0.0000 C   0  0
   -1.8315  -13.1319    0.0000 C   0  0
   -0.3643  -13.4440    0.0000 C   0  0
    0.0992  -14.8715    0.0000 C   0  0
    0.5625  -16.2982    0.0000 N   0  0
    0.6396  -12.3295    0.0000 C   0  0
    0.1764  -10.9028    0.0000 C   0  0
    1.1786   -9.7856    0.0000 O   0  0
    0.7130   -8.3588    0.0000 C   0  0
   -0.7552   -8.0517    0.0000 C   0  0
   -1.2234   -6.6267    0.0000 C   0  0
   -0.2234   -5.5086    0.0000 C   0  0
   -0.6890   -4.0818    0.0000 C   0  0
    0.3114   -2.9665    0.0000 C   0  0
    1.8032   -3.1233    0.0000 N   0  0
    2.4133   -1.7530    0.0000 N   0  0
    1.2990   -0.7500    0.0000 C   0  0
    1.2990    0.7500    0.0000 N   0  0
    0.0000    1.5000    0.0000 N   0  0
   -1.2990    0.7500    0.0000 C   0  0
   -1.2990   -0.7500    0.0000 C   0  0
    0.0000   -1.5000    0.0000 C   0  0
    1.2449   -5.8157    0.0000 C   0  0
    1.7131   -7.2408    0.0000 C   0  0
    3.1813   -7.5478    0.0000 Br  0  0
   -1.2909  -10.5907    0.0000 C   0  0
  1  2  1  0
  2  3  2  0
  3  4  1  0
  4  5  1  0
  5  6  3  0
  4  7  2  0
  7  8  1  0
  8  9  1  0
  9 10  1  0
 10 11  2  0
 11 12  1  0
 12 13  2  0
 13 14  1  0
 14 15  1  0
 15 16  2  0
 16 17  1  0
 17 18  1  0
 18 19  2  0
 19 20  1  0
 20 21  2  0
 21 22  1  0
 22 23  2  0
 23 15  1  0
 23 18  1  0
 13 24  1  0
 24 25  2  0
 25 10  1  0
 25 26  1  0
  8 27  2  0
 27  2  1  0
M  END
> <Smiles>
Cc1cc(C#N)cc(Oc2ccc(Cc3n[nH]c4nnccc34)cc2Br)c1

> <IC50_uM>
0.12

> <pIC50>
6.920818754

> <Activity>
1

$$$$

  SciTegic10102310092D

 21 22  0  0  1  0            999 V2000
    3.8983   -0.7459    0.0000 C   0  0
    2.6003   -1.4977    0.0000 O   0  0
    1.2990   -0.7500    0.0000 C   0  0
    1.2990    0.7500    0.0000 C   0  0
    0.0000    1.5000    0.0000 C   0  0
    0.0000    3.0000    0.0000 O   0  0
   -1.2991    3.7500    0.0000 C   0  0
   -1.2991    5.2500    0.0000 O   0  0
   -2.5981    3.0000    0.0000 C   0  0
   -2.5981    1.5000    0.0000 C   0  0
   -1.2990    0.7500    0.0000 C   0  0
   -1.2990   -0.7500    0.0000 C   0  0
    0.0000   -1.5000    0.0000 C   0  0
   -0.0031   -3.0008    0.0000 C   0  0
   -1.3039   -3.7494    0.0000 C   0  0  1  0  0  0
   -2.6008   -2.9941    0.0000 O   0  0
   -2.5961   -1.4941    0.0000 C   0  0
   -1.3070   -5.2502    0.0000 C   0  0
   -1.3094   -6.7502    0.0000 C   0  0
   -0.0092   -6.0025    0.0000 C   0  0
   -2.6071   -5.9984    0.0000 O   0  0
  1  2  1  0
  2  3  1  0
  3  4  2  0
  4  5  1  0
  5  6  1  0
  6  7  1  0
  7  8  2  0
  7  9  1  0
  9 10  2  0
 10 11  1  0
 11  5  2  0
 11 12  1  0
 12 13  2  0
 13  3  1  0
 13 14  1  0
 15 14  1  6
 15 16  1  0
 16 17  1  0
 15 18  1  0
 18 19  1  0
 18 20  1  0
 18 21  1  0
M  END
> <Smiles>
COc1cc2oc(=O)ccc2cc1C[C@@H](OC)C(C)(C)O

> <IC50_uM>
0.12

> <pIC50>
6.920818754

> <Activity>
1

$$$$

  SciTegic10102310092D

 21 22  0  0  0  0            999 V2000
    3.8988   -3.7512    0.0000 C   0  0
    2.5997   -3.0012    0.0000 C   0  0
    2.5988   -1.5004    0.0000 C   0  0
    3.8976   -0.7500    0.0000 C   0  0
    3.8982   -2.2498    0.0000 C   0  0
    1.2990   -0.7500    0.0000 C   0  0
    1.2990    0.7500    0.0000 C   0  0
    0.0000    1.5000    0.0000 C   0  0
    0.0000    3.0000    0.0000 C   0  0
   -1.2991    3.7500    0.0000 C   0  0
   -1.2960    5.2508    0.0000 C   0  0
    0.0048    5.9994    0.0000 C   0  0
    0.0079    7.4994    0.0000 O   0  0
   -2.5981    3.0000    0.0000 C   0  0
   -3.8994    3.7477    0.0000 O   0  0
   -5.1974    2.9959    0.0000 C   0  0
   -2.5981    1.5000    0.0000 C   0  0
   -1.2990    0.7500    0.0000 C   0  0
   -1.2990   -0.7500    0.0000 O   0  0
    0.0000   -1.5000    0.0000 C   0  0
    0.0000   -3.0000    0.0000 O   0  0
  1  2  2  0
  2  3  1  0
  3  4  1  0
  3  5  1  0
  3  6  1  0
  6  7  2  0
  7  8  1  0
  8  9  2  0
  9 10  1  0
 10 11  1  0
 11 12  1  0
 12 13  2  0
 10 14  2  0
 14 15  1  0
 15 16  1  0
 14 17  1  0
 17 18  2  0
 18  8  1  0
 18 19  1  0
 19 20  1  0
 20  6  1  0
 20 21  2  0
M  END
> <Smiles>
C=CC(C)(C)c1cc2cc(CC=O)c(OC)cc2oc1=O

> <IC50_uM>
0.12

> <pIC50>
6.920818754

> <Activity>
1

$$$$

  SciTegic10102310092D

 24 25  0  0  0  0            999 V2000
    3.8988   -3.7512    0.0000 C   0  0
    2.5997   -3.0012    0.0000 C   0  0
    2.5988   -1.5004    0.0000 C   0  0
    3.8976   -0.7500    0.0000 C   0  0
    3.8982   -2.2498    0.0000 C   0  0
    1.2990   -0.7500    0.0000 C   0  0
    1.2990    0.7500    0.0000 C   0  0
    0.0000    1.5000    0.0000 C   0  0
    0.0000    3.0000    0.0000 C   0  0
    1.2990    3.7500    0.0000 O   0  0
   -1.2991    3.7500    0.0000 C   0  0
   -1.3022    5.2508    0.0000 C   0  0
   -2.6030    5.9994    0.0000 C   0  0
   -2.6061    7.5002    0.0000 C   0  0
   -3.9062    8.2483    0.0000 C   0  0
   -1.3084    8.2525    0.0000 C   0  0
   -2.5981    3.0000    0.0000 C   0  0
   -3.8994    3.7477    0.0000 O   0  0
   -5.1974    2.9959    0.0000 C   0  0
   -2.5981    1.5000    0.0000 C   0  0
   -1.2990    0.7500    0.0000 C   0  0
   -1.2990   -0.7500    0.0000 O   0  0
    0.0000   -1.5000    0.0000 C   0  0
    0.0000   -3.0000    0.0000 O   0  0
  1  2  2  0
  2  3  1  0
  3  4  1  0
  3  5  1  0
  3  6  1  0
  6  7  2  0
  7  8  1  0
  8  9  2  0
  9 10  1  0
  9 11  1  0
 11 12  1  0
 12 13  1  0
 13 14  2  0
 14 15  1  0
 14 16  1  0
 11 17  2  0
 17 18  1  0
 18 19  1  0
 17 20  1  0
 20 21  2  0
 21  8  1  0
 21 22  1  0
 22 23  1  0
 23  6  1  0
 23 24  2  0
M  END
> <Smiles>
C=CC(C)(C)c1cc2c(O)c(CC=C(C)C)c(OC)cc2oc1=O

> <IC50_uM>
0.12

> <pIC50>
6.920818754

> <Activity>
1

$$$$

  SciTegic10102310092D

 21 22  0  0  1  0            999 V2000
    3.8983   -0.7459    0.0000 C   0  0
    2.6003   -1.4977    0.0000 O   0  0
    1.2990   -0.7500    0.0000 C   0  0
    1.2990    0.7500    0.0000 C   0  0
    0.0000    1.5000    0.0000 C   0  0
    0.0000    3.0000    0.0000 O   0  0
   -1.2991    3.7500    0.0000 C   0  0
   -1.2991    5.2500    0.0000 O   0  0
   -2.5981    3.0000    0.0000 C   0  0
   -2.5981    1.5000    0.0000 C   0  0
   -1.2990    0.7500    0.0000 C   0  0
   -1.2990   -0.7500    0.0000 C   0  0
    0.0000   -1.5000    0.0000 C   0  0
   -0.0031   -3.0008    0.0000 C   0  0
   -1.3039   -3.7494    0.0000 C   0  0  1  0  0  0
   -2.6016   -2.9971    0.0000 O   0  0
   -1.3070   -5.2502    0.0000 C   0  0
   -1.3094   -6.7502    0.0000 C   0  0
   -0.0092   -6.0025    0.0000 C   0  0
   -2.6078   -5.9988    0.0000 O   0  0
   -2.6109   -7.4988    0.0000 C   0  0
  1  2  1  0
  2  3  1  0
  3  4  2  0
  4  5  1  0
  5  6  1  0
  6  7  1  0
  7  8  2  0
  7  9  1  0
  9 10  2  0
 10 11  1  0
 11  5  2  0
 11 12  1  0
 12 13  2  0
 13  3  1  0
 13 14  1  0
 14 15  1  0
 15 16  1  6
 15 17  1  0
 17 18  1  0
 17 19  1  0
 17 20  1  0
 20 21  1  0
M  END
> <Smiles>
COc1cc2oc(=O)ccc2cc1C[C@@H](O)C(C)(C)OC

> <IC50_uM>
0.12

> <pIC50>
6.920818754

> <Activity>
1

$$$$

  SciTegic10102310092D

 26 27  0  0  1  0            999 V2000
    3.8988   -3.7512    0.0000 C   0  0
    2.5997   -3.0012    0.0000 C   0  0
    2.5988   -1.5004    0.0000 C   0  0
    3.8976   -0.7500    0.0000 C   0  0
    3.8982   -2.2498    0.0000 C   0  0
    1.2990   -0.7500    0.0000 C   0  0
    1.2990    0.7500    0.0000 C   0  0
    0.0000    1.5000    0.0000 C   0  0
    0.0000    3.0000    0.0000 C   0  0
   -1.2991    3.7500    0.0000 C   0  0
   -1.2960    5.2508    0.0000 C   0  0
    0.0048    5.9994    0.0000 C   0  0  1  0  0  0
    1.3017    5.2441    0.0000 O   0  0
    1.2970    3.7441    0.0000 C   0  0
    0.0079    7.5002    0.0000 C   0  0
    0.0103    9.0002    0.0000 C   0  0
   -1.2898    8.2525    0.0000 C   0  0
    1.3080    8.2484    0.0000 O   0  0
   -2.5981    3.0000    0.0000 C   0  0
   -3.8994    3.7477    0.0000 O   0  0
   -5.1974    2.9959    0.0000 C   0  0
   -2.5981    1.5000    0.0000 C   0  0
   -1.2990    0.7500    0.0000 C   0  0
   -1.2990   -0.7500    0.0000 O   0  0
    0.0000   -1.5000    0.0000 C   0  0
    0.0000   -3.0000    0.0000 O   0  0
  1  2  2  0
  2  3  1  0
  3  4  1  0
  3  5  1  0
  3  6  1  0
  6  7  2  0
  7  8  1  0
  8  9  2  0
  9 10  1  0
 10 11  1  0
 12 11  1  6
 12 13  1  0
 13 14  1  0
 12 15  1  0
 15 16  1  0
 15 17  1  0
 15 18  1  0
 10 19  2  0
 19 20  1  0
 20 21  1  0
 19 22  1  0
 22 23  2  0
 23  8  1  0
 23 24  1  0
 24 25  1  0
 25  6  1  0
 25 26  2  0
M  END
> <Smiles>
C=CC(C)(C)c1cc2cc(C[C@@H](OC)C(C)(C)O)c(OC)cc2oc1=O

> <IC50_uM>
0.12

> <pIC50>
6.920818754

> <Activity>
1

$$$$

  SciTegic10102310092D

 22 23  0  0  0  0            999 V2000
    3.8988   -3.7512    0.0000 C   0  0
    2.5997   -3.0012    0.0000 C   0  0
    2.5988   -1.5004    0.0000 C   0  0
    3.8976   -0.7500    0.0000 C   0  0
    3.8982   -2.2498    0.0000 C   0  0
    1.2990   -0.7500    0.0000 C   0  0
    1.2990    0.7500    0.0000 C   0  0
    0.0000    1.5000    0.0000 C   0  0
    0.0000    3.0000    0.0000 C   0  0
   -1.2991    3.7500    0.0000 C   0  0
   -1.2960    5.2508    0.0000 C   0  0
    0.0048    5.9994    0.0000 C   0  0
    0.0079    7.5002    0.0000 C   0  0
    1.3080    8.2484    0.0000 C   0  0
   -1.2898    8.2525    0.0000 C   0  0
   -2.5981    3.0000    0.0000 C   0  0
   -3.8971    3.7500    0.0000 O   0  0
   -2.5981    1.5000    0.0000 C   0  0
   -1.2990    0.7500    0.0000 C   0  0
   -1.2990   -0.7500    0.0000 O   0  0
    0.0000   -1.5000    0.0000 C   0  0
    0.0000   -3.0000    0.0000 O   0  0
  1  2  2  0
  2  3  1  0
  3  4  1  0
  3  5  1  0
  3  6  1  0
  6  7  2  0
  7  8  1  0
  8  9  2  0
  9 10  1  0
 10 11  1  0
 11 12  1  0
 12 13  2  0
 13 14  1  0
 13 15  1  0
 10 16  2  0
 16 17  1  0
 16 18  1  0
 18 19  2  0
 19  8  1  0
 19 20  1  0
 20 21  1  0
 21  6  1  0
 21 22  2  0
M  END
> <Smiles>
C=CC(C)(C)c1cc2cc(CC=C(C)C)c(O)cc2oc1=O

> <IC50_uM>
0.12

> <pIC50>
6.920818754

> <Activity>
1

$$$$

  SciTegic10102310092D

 27 28  0  0  1  0            999 V2000
    3.8988   -3.7512    0.0000 C   0  0
    2.5997   -3.0012    0.0000 C   0  0
    2.5988   -1.5004    0.0000 C   0  0
    3.8976   -0.7500    0.0000 C   0  0
    3.8982   -2.2498    0.0000 C   0  0
    1.2990   -0.7500    0.0000 C   0  0
    1.2990    0.7500    0.0000 C   0  0
    0.0000    1.5000    0.0000 C   0  0
    0.0000    3.0000    0.0000 C   0  0
   -1.2991    3.7500    0.0000 C   0  0
   -1.2960    5.2508    0.0000 C   0  0
    0.0048    5.9994    0.0000 C   0  0  1  0  0  0
    0.0079    7.5002    0.0000 O   0  0
    1.3087    8.2488    0.0000 C   0  0
    1.3118    9.7488    0.0000 C   0  0
    1.3048    5.2494    0.0000 C   0  0
    2.6038    4.4992    0.0000 C   0  0
    1.3048    3.7494    0.0000 C   0  0
    2.6041    5.9990    0.0000 O   0  0
   -2.5981    3.0000    0.0000 C   0  0
   -3.8994    3.7477    0.0000 O   0  0
   -5.1974    2.9959    0.0000 C   0  0
   -2.5981    1.5000    0.0000 C   0  0
   -1.2990    0.7500    0.0000 C   0  0
   -1.2990   -0.7500    0.0000 O   0  0
    0.0000   -1.5000    0.0000 C   0  0
    0.0000   -3.0000    0.0000 O   0  0
  1  2  2  0
  2  3  1  0
  3  4  1  0
  3  5  1  0
  3  6  1  0
  6  7  2  0
  7  8  1  0
  8  9  2  0
  9 10  1  0
 10 11  1  0
 12 11  1  1
 12 13  1  0
 13 14  1  0
 14 15  1  0
 12 16  1  0
 16 17  1  0
 16 18  1  0
 16 19  1  0
 10 20  2  0
 20 21  1  0
 21 22  1  0
 20 23  1  0
 23 24  2  0
 24  8  1  0
 24 25  1  0
 25 26  1  0
 26  6  1  0
 26 27  2  0
M  END
> <Smiles>
C=CC(C)(C)c1cc2cc(C[C@@H](OCC)C(C)(C)O)c(OC)cc2oc1=O

> <IC50_uM>
0.12

> <pIC50>
6.920818754

> <Activity>
1

$$$$

  SciTegic10102310092D

 24 25  0  0  0  0            999 V2000
    3.8988   -3.7512    0.0000 C   0  0
    2.5997   -3.0012    0.0000 C   0  0
    2.5988   -1.5004    0.0000 C   0  0
    3.8976   -0.7500    0.0000 C   0  0
    3.8982   -2.2498    0.0000 C   0  0
    1.2990   -0.7500    0.0000 C   0  0
    1.2990    0.7500    0.0000 C   0  0
    0.0000    1.5000    0.0000 C   0  0
    0.0000    3.0000    0.0000 C   0  0
   -1.2991    3.7500    0.0000 C   0  0
   -1.2960    5.2508    0.0000 C   0  0
    0.0048    5.9994    0.0000 C   0  0
    1.3026    5.2471    0.0000 O   0  0
    0.0079    7.5002    0.0000 C   0  0
    1.3080    8.2484    0.0000 C   0  0
   -1.2898    8.2525    0.0000 C   0  0
   -2.5981    3.0000    0.0000 C   0  0
   -3.8994    3.7477    0.0000 O   0  0
   -5.1974    2.9959    0.0000 C   0  0
   -2.5981    1.5000    0.0000 C   0  0
   -1.2990    0.7500    0.0000 C   0  0
   -1.2990   -0.7500    0.0000 O   0  0
    0.0000   -1.5000    0.0000 C   0  0
    0.0000   -3.0000    0.0000 O   0  0
  1  2  2  0
  2  3  1  0
  3  4  1  0
  3  5  1  0
  3  6  1  0
  6  7  2  0
  7  8  1  0
  8  9  2  0
  9 10  1  0
 10 11  1  0
 11 12  1  0
 12 13  2  0
 12 14  1  0
 14 15  1  0
 14 16  1  0
 10 17  2  0
 17 18  1  0
 18 19  1  0
 17 20  1  0
 20 21  2  0
 21  8  1  0
 21 22  1  0
 22 23  1  0
 23  6  1  0
 23 24  2  0
M  END
> <Smiles>
C=CC(C)(C)c1cc2cc(CC(=O)C(C)C)c(OC)cc2oc1=O

> <IC50_uM>
0.12

> <pIC50>
6.920818754

> <Activity>
1

$$$$

  SciTegic10102310092D

 23 24  0  0  0  0            999 V2000
    3.8988   -3.7512    0.0000 C   0  0
    2.5997   -3.0012    0.0000 C   0  0
    2.5988   -1.5004    0.0000 C   0  0
    3.8976   -0.7500    0.0000 C   0  0
    3.8982   -2.2498    0.0000 C   0  0
    1.2990   -0.7500    0.0000 C   0  0
    1.2990    0.7500    0.0000 C   0  0
    0.0000    1.5000    0.0000 C   0  0
    0.0000    3.0000    0.0000 C   0  0
   -1.2991    3.7500    0.0000 C   0  0
   -1.2960    5.2508    0.0000 C   0  0
    0.0048    5.9994    0.0000 C   0  0
    0.0079    7.5002    0.0000 C   0  0
    1.3080    8.2484    0.0000 C   0  0
   -1.2898    8.2525    0.0000 C   0  0
   -2.5981    3.0000    0.0000 C   0  0
   -3.8994    3.7477    0.0000 O   0  0
   -5.1974    2.9959    0.0000 C   0  0
   -2.5981    1.5000    0.0000 C   0  0
   -1.2990    0.7500    0.0000 C   0  0
   -1.2990   -0.7500    0.0000 O   0  0
    0.0000   -1.5000    0.0000 C   0  0
    0.0000   -3.0000    0.0000 O   0  0
  1  2  2  0
  2  3  1  0
  3  4  1  0
  3  5  1  0
  3  6  1  0
  6  7  2  0
  7  8  1  0
  8  9  2  0
  9 10  1  0
 10 11  1  0
 11 12  1  0
 12 13  2  0
 13 14  1  0
 13 15  1  0
 10 16  2  0
 16 17  1  0
 17 18  1  0
 16 19  1  0
 19 20  2  0
 20  8  1  0
 20 21  1  0
 21 22  1  0
 22  6  1  0
 22 23  2  0
M  END
> <Smiles>
C=CC(C)(C)c1cc2cc(CC=C(C)C)c(OC)cc2oc1=O

> <IC50_uM>
0.12

> <pIC50>
6.920818754

> <Activity>
1

$$$$

  SciTegic10102310092D

 29 31  0  0  0  0            999 V2000
    2.5981   -1.5000    0.0000 C   0  0
    1.2990   -0.7500    0.0000 C   0  0
    1.2990    0.7500    0.0000 C   0  0
    0.0000    1.5000    0.0000 C   0  0
    0.0000    3.0008    0.0000 C   0  0
    0.0000    4.5008    0.0000 N   0  0
   -1.2990    0.7500    0.0000 C   0  0
   -1.2990   -0.7500    0.0000 C   0  0
   -2.5981   -1.5000    0.0000 C   0  0
    0.0000   -1.5000    0.0000 C   0  0
    0.0031   -3.0008    0.0000 O   0  0
    1.3039   -3.7494    0.0000 C   0  0
    2.6005   -2.9949    0.0000 N   0  0
    3.9021   -3.7404    0.0000 C   0  0
    5.2008   -2.9882    0.0000 N   0  0
    6.5021   -3.7360    0.0000 C   0  0
    7.8012   -2.9860    0.0000 C   0  0
    9.1002   -3.7360    0.0000 C   0  0
    9.1002   -5.2360    0.0000 C   0  0
   10.4000   -5.9865    0.0000 C   0  0
   11.6990   -6.7365    0.0000 N   0  0
    7.8012   -5.9860    0.0000 C   0  0
    6.5021   -5.2360    0.0000 C   0  0
    3.9073   -5.2404    0.0000 N   0  0
    2.6108   -5.9949    0.0000 C   0  0
    1.3092   -5.2494    0.0000 C   0  0
    0.0136   -6.0070    0.0000 N   0  3
    0.0210   -7.5070    0.0000 O   0  0
   -1.2893   -5.2638    0.0000 O   0  5
  1  2  1  0
  2  3  2  0
  3  4  1  0
  4  5  1  0
  5  6  3  0
  4  7  2  0
  7  8  1  0
  8  9  1  0
  8 10  2  0
 10  2  1  0
 10 11  1  0
 11 12  1  0
 12 13  2  0
 13 14  1  0
 14 15  1  0
 15 16  1  0
 16 17  2  0
 17 18  1  0
 18 19  2  0
 19 20  1  0
 20 21  3  0
 19 22  1  0
 22 23  2  0
 23 16  1  0
 14 24  2  0
 24 25  1  0
 25 26  2  0
 26 12  1  0
 26 27  1  0
 27 28  2  0
 27 29  1  0
M  CHG  2  27   1  29  -1
M  END
> <Smiles>
Cc1cc(C#N)cc(C)c1Oc1nc(Nc2ccc(C#N)cc2)ncc1[N+](=O)[O-]

> <IC50_uM>
0.121

> <pIC50>
6.91721463

> <Activity>
1

$$$$

  SciTegic10102310092D

 27 29  0  0  0  0            999 V2000
    3.8978   -2.2504    0.0000 N   0  0
    2.5988   -1.5004    0.0000 C   0  0
    1.2990   -0.7500    0.0000 C   0  0
    1.2990    0.7500    0.0000 C   0  0
    0.0000    1.5000    0.0000 C   0  0
   -1.2990    0.7500    0.0000 C   0  0
   -2.6003    1.4977    0.0000 N   0  0
   -3.8990    0.7455    0.0000 C   0  0
   -5.2007    1.4909    0.0000 N   0  0
   -6.4972    0.7364    0.0000 C   0  0
   -6.4920   -0.7636    0.0000 C   0  0
   -5.1903   -1.5091    0.0000 C   0  0
   -5.1821   -3.0099    0.0000 N   0  0
   -3.8787   -3.7540    0.0000 C   0  0
   -3.8704   -5.2548    0.0000 C   0  0
   -2.5687   -6.0003    0.0000 C   0  0
   -2.5635   -7.5003    0.0000 C   0  0
   -3.8599   -8.2548    0.0000 C   0  0
   -5.1616   -7.5094    0.0000 C   0  0
   -6.4587   -8.2643    0.0000 C   0  0
   -6.4544   -9.7643    0.0000 F   0  0
   -7.7601   -7.5184    0.0000 F   0  0
   -7.7555   -9.0182    0.0000 F   0  0
   -5.1668   -6.0094    0.0000 C   0  0
   -3.8939   -0.7546    0.0000 N   0  0
   -1.2990   -0.7500    0.0000 C   0  0
    0.0000   -1.5000    0.0000 C   0  0
  1  2  3  0
  2  3  1  0
  3  4  2  0
  4  5  1  0
  5  6  2  0
  6  7  1  0
  7  8  1  0
  8  9  2  0
  9 10  1  0
 10 11  2  0
 11 12  1  0
 12 13  1  0
 13 14  1  0
 14 15  1  0
 15 16  2  0
 16 17  1  0
 17 18  2  0
 18 19  1  0
 19 20  1  0
 20 21  1  0
 20 22  1  0
 20 23  1  0
 19 24  2  0
 24 15  1  0
 12 25  2  0
 25  8  1  0
  6 26  1  0
 26 27  2  0
 27  3  1  0
M  END
> <Smiles>
N#Cc1ccc(Nc2nccc(NCc3cccc(C(F)(F)F)c3)n2)cc1

> <IC50_uM>
0.122

> <pIC50>
6.913640169

> <Activity>
1

$$$$

  SciTegic10102310092D

 23 25  0  0  0  0            999 V2000
    3.8983   -0.7459    0.0000 C   0  0
    2.6003   -1.4977    0.0000 O   0  0
    1.2990   -0.7500    0.0000 C   0  0
    1.2990    0.7500    0.0000 C   0  0
    0.0000    1.5000    0.0000 C   0  0
    0.0000    3.0000    0.0000 Cl  0  0
   -1.2990    0.7500    0.0000 C   0  0
   -1.2990   -0.7500    0.0000 C   0  0
    0.0000   -1.5000    0.0000 C   0  0
    0.0000   -3.0000    0.0000 N   0  0
   -1.2990   -3.7500    0.0000 C   0  0
   -1.2990   -5.2500    0.0000 O   0  0
   -2.5981   -3.0000    0.0000 O   0  0
   -2.5981   -1.5000    0.0000 C   0  0  3  0  0  0
   -2.5631   -0.0201    0.0000 C   0  0
   -2.5646    1.4807    0.0000 C   0  0
   -2.5660    2.9815    0.0000 C   0  0
   -3.3171    4.1883    0.0000 C   0  0
   -1.8171    4.1897    0.0000 C   0  0
   -3.8626   -2.2702    0.0000 C   0  0
   -3.8651   -3.7702    0.0000 F   0  0
   -5.1628   -3.0183    0.0000 F   0  0
   -5.1606   -1.5185    0.0000 F   0  0
  1  2  1  0
  2  3  1  0
  3  4  2  0
  4  5  1  0
  5  6  1  0
  5  7  2  0
  7  8  1  0
  8  9  2  0
  9  3  1  0
  9 10  1  0
 10 11  1  0
 11 12  2  0
 11 13  1  0
 13 14  1  0
 14  8  1  0
 14 15  1  4
 15 16  3  0
 16 17  1  0
 17 18  1  0
 18 19  1  0
 19 17  1  0
 14 20  1  0
 20 21  1  0
 20 22  1  0
 20 23  1  0
M  END
> <Smiles>
COc1cc(Cl)cc2c1NC(=O)OC2(C#CC1CC1)C(F)(F)F

> <IC50_uM>
0.122

> <pIC50>
6.913640169

> <Activity>
1

$$$$

  SciTegic10102310092D

 38 41  0  0  0  0            999 V2000
    3.8983   -0.7512    0.0000 C   0  0
    2.5988   -1.5004    0.0000 C   0  0
    2.5983   -3.0004    0.0000 C   0  0
    3.8975   -2.2510    0.0000 C   0  0
    1.2990   -0.7500    0.0000 C   0  0
    1.2990    0.7500    0.0000 C   0  0
    0.0000    1.5000    0.0000 C   0  0
   -1.2990    0.7500    0.0000 C   0  0
   -2.5987    1.5004    0.0000 C   0  0
   -3.9492    0.8772    0.0000 C   0  0
   -4.9546    1.9903    0.0000 N   0  0
   -4.2067    3.2905    0.0000 N   0  0
   -2.7390    2.9810    0.0000 C   0  0
   -1.6216    3.9790    0.0000 O   0  0
   -1.9268    5.4485    0.0000 C   0  0
   -0.8074    6.4482    0.0000 C   0  0
    0.6172    5.9785    0.0000 O   0  0
   -1.1126    7.9177    0.0000 N   0  0
    0.0068    8.9174    0.0000 C   0  0
    1.4306    8.4453    0.0000 C   0  0
    2.5514    9.4422    0.0000 C   0  0
    2.2485   10.9113    0.0000 C   0  0
    3.3698   11.9087    0.0000 C   0  0
    4.7944   11.4389    0.0000 C   0  0
    5.9136   12.4375    0.0000 C   0  0
    5.6083   13.9061    0.0000 C   0  0
    6.7261   14.9077    0.0000 C   0  0
    6.4186   16.3767    0.0000 C   0  0
    7.5357   17.3777    0.0000 O   0  0
    4.9933   16.8441    0.0000 O   0  0
    4.1839   14.3761    0.0000 C   0  0
    3.0646   13.3774    0.0000 C   0  0
    0.8247   11.3835    0.0000 C   0  0
   -0.2961   10.3866    0.0000 C   0  0
   -1.7198   10.8588    0.0000 Cl  0  0
   -1.2990   -0.7500    0.0000 C   0  0
   -2.5981   -1.5000    0.0000 Cl  0  0
    0.0000   -1.5000    0.0000 C   0  0
  1  2  1  0
  2  3  1  0
  2  4  1  0
  2  5  1  0
  5  6  2  0
  6  7  1  0
  7  8  2  0
  8  9  1  0
  9 10  2  0
 10 11  1  0
 11 12  1  0
 12 13  2  0
 13  9  1  0
 13 14  1  0
 14 15  1  0
 15 16  1  0
 16 17  2  0
 16 18  1  0
 18 19  1  0
 19 20  2  0
 20 21  1  0
 21 22  2  0
 22 23  1  0
 23 24  2  0
 24 25  1  0
 25 26  2  0
 26 27  1  0
 27 28  1  0
 28 29  2  0
 28 30  1  0
 26 31  1  0
 31 32  2  0
 32 23  1  0
 22 33  1  0
 33 34  2  0
 34 19  1  0
 34 35  1  0
  8 36  1  0
 36 37  1  0
 36 38  2  0
 38  5  1  0
M  END
> <Smiles>
CC(C)(C)c1ccc(-c2c[nH]nc2OCC(=O)Nc2ccc(-c3ccc(CC(=O)O)cc3)cc2Cl)c(Cl)c1

> <IC50_uM>
0.122

> <pIC50>
6.913640169

> <Activity>
1

$$$$

  SciTegic10102310092D

  7  6  0  0  0  0            999 V2000
    1.3000    0.7500    0.0000 P   0  0
    1.3000    2.2500    0.0000 O   0  0
    0.0011    1.5002    0.0000 O   0  0
    0.0007    0.0004    0.0000 O   0  0
    2.6000    0.0000    0.0000 C   0  0
    2.6000   -1.5000    0.0000 O   0  0
    3.8993    0.7496    0.0000 O   0  0
  1  2  1  0
  1  3  1  0
  1  4  2  0
  1  5  1  0
  5  6  1  0
  5  7  2  0
M  END
> <Smiles>
P(O)(O)(=O)C(O)=O

> <IC50_uM>
0.125892541

> <pIC50>
6.900000001

> <Activity>
1

$$$$

  SciTegic10102310092D

 24 25  0  0  0  0            999 V2000
    5.1887   -6.0105    0.0000 C   0  0
    3.8912   -5.2578    0.0000 C   0  0
    3.8933   -3.7570    0.0000 C   0  0
    2.5951   -3.0039    0.0000 C   0  0
    2.5973   -1.5031    0.0000 N   0  0
    1.2990   -0.7500    0.0000 C   0  0
    1.2990    0.7500    0.0000 C   0  0
    2.5972    1.5031    0.0000 C   0  0
    2.5951    3.0039    0.0000 C   0  0
    3.8915    3.7585    0.0000 C   0  0
    3.8863    5.2585    0.0000 C   0  0
    5.1827    6.0130    0.0000 C   0  0
    2.5847    6.0040    0.0000 C   0  0
    1.2883    5.2495    0.0000 C   0  0
   -0.0134    5.9950    0.0000 C   0  0
    1.2934    3.7495    0.0000 C   0  0
    0.0000    1.5000    0.0000 C   0  0
   -0.0031    3.0008    0.0000 C   0  0
   -1.3032    3.7490    0.0000 C   0  0
   -1.2990    0.7500    0.0000 C   0  0
   -2.5981    1.5000    0.0000 C   0  0
   -1.2990   -0.7500    0.0000 N   0  0
    0.0000   -1.5000    0.0000 C   0  0
    0.0000   -3.0000    0.0000 O   0  0
  1  2  1  0
  2  3  1  0
  3  4  1  0
  4  5  1  0
  5  6  1  0
  6  7  2  0
  7  8  1  0
  8  9  1  0
  9 10  2  0
 10 11  1  0
 11 12  1  0
 11 13  2  0
 13 14  1  0
 14 15  1  0
 14 16  2  0
 16  9  1  0
  7 17  1  0
 17 18  1  0
 18 19  1  0
 17 20  2  0
 20 21  1  0
 20 22  1  0
 22 23  1  0
 23  6  1  0
 23 24  2  0
M  END
> <Smiles>
CCCCNc1c(Cc2cc(C)cc(C)c2)c(CC)c(C)[nH]c1=O

> <IC50_uM>
0.126

> <pIC50>
6.899629455

> <Activity>
1

$$$$

  SciTegic10102310092D

 26 28  0  0  0  0            999 V2000
    2.5981   -1.5000    0.0000 C   0  0
    1.2990   -0.7500    0.0000 C   0  0
    1.2990    0.7500    0.0000 C   0  0
    0.0000    1.5000    0.0000 N   0  0
   -1.2990    0.7500    0.0000 C   0  0
   -2.6003    1.4977    0.0000 N   0  0
   -3.8990    0.7455    0.0000 C   0  0
   -5.2007    1.4909    0.0000 C   0  0
   -6.4972    0.7364    0.0000 C   0  0
   -6.4920   -0.7636    0.0000 C   0  0
   -7.7891   -1.5185    0.0000 C   0  0
   -9.0855   -2.2730    0.0000 N   0  0
   -5.1903   -1.5091    0.0000 C   0  0
   -3.8939   -0.7546    0.0000 C   0  0
   -1.2990   -0.7500    0.0000 N   0  0
    0.0000   -1.5000    0.0000 C   0  0
   -0.0031   -3.0008    0.0000 C   0  0  3  0  0  0
    1.2947   -3.7531    0.0000 C   0  0
   -1.3039   -3.7494    0.0000 C   0  0
   -1.3092   -5.2494    0.0000 C   0  0
   -0.0128   -6.0039    0.0000 F   0  0
   -2.6108   -5.9949    0.0000 C   0  0
   -3.9072   -5.2404    0.0000 C   0  0
   -3.9020   -3.7404    0.0000 C   0  0
   -2.6004   -2.9949    0.0000 C   0  0
   -2.5953   -1.4949    0.0000 F   0  0
  1  2  1  0
  2  3  2  0
  3  4  1  0
  4  5  2  0
  5  6  1  0
  6  7  1  0
  7  8  2  0
  8  9  1  0
  9 10  2  0
 10 11  1  0
 11 12  3  0
 10 13  1  0
 13 14  2  0
 14  7  1  0
  5 15  1  0
 15 16  2  0
 16  2  1  0
 16 17  1  0
 17 18  1  4
 17 19  1  0
 19 20  2  0
 20 21  1  0
 20 22  1  0
 22 23  2  0
 23 24  1  0
 24 25  2  0
 25 19  1  0
 25 26  1  0
M  END
> <Smiles>
Cc1cnc(Nc2ccc(C#N)cc2)nc1C(C)c1c(F)cccc1F

> <IC50_uM>
0.128

> <pIC50>
6.89279003

> <Activity>
1

$$$$

  SciTegic10102310092D

 37 41  0  0  0  0            999 V2000
    2.5923    1.5001    0.0000 C   0  0
    3.8939    0.7546    0.0000 C   0  0
    5.1903    1.5091    0.0000 C   0  0
    6.4920    0.7636    0.0000 C   0  0
    7.7907    1.5158    0.0000 C   0  0
    9.0920    0.7680    0.0000 C   0  0
   10.3907    1.5203    0.0000 C   0  0
   11.6886    2.2721    0.0000 N   0  0
    6.4972   -0.7364    0.0000 C   0  0
    5.2007   -1.4909    0.0000 C   0  0
    5.2059   -2.9909    0.0000 C   0  0
    3.8990   -0.7455    0.0000 C   0  0
    2.6003   -1.4977    0.0000 O   0  0
    1.2990   -0.7500    0.0000 C   0  0
    1.2990    0.7500    0.0000 N   0  0
    0.0000    1.5000    0.0000 C   0  0
   -0.0031    3.0008    0.0000 N   0  0
   -1.3039    3.7494    0.0000 C   0  0
   -1.3092    5.2494    0.0000 C   0  0
   -2.6108    5.9949    0.0000 C   0  0
   -3.9073    5.2404    0.0000 N   0  0
   -5.2112    5.9836    0.0000 C   0  0
   -6.5072    5.2269    0.0000 C   0  0
   -7.8115    5.9678    0.0000 C   0  0
   -9.1053    5.2088    0.0000 C   0  0
   -9.0949    3.7089    0.0000 C   0  0
   -7.7907    2.9679    0.0000 C   0  0
   -7.7803    1.4679    0.0000 Br  0  0
   -6.4969    3.7269    0.0000 C   0  0
   -3.9021    3.7404    0.0000 C   0  0
   -2.6005    2.9949    0.0000 C   0  0
   -1.2990    0.7500    0.0000 N   0  0
   -1.2990   -0.7500    0.0000 C   0  0
   -2.4133   -1.7530    0.0000 C   0  0
   -1.8032   -3.1233    0.0000 C   0  0
   -0.3114   -2.9665    0.0000 S   0  0
    0.0000   -1.5000    0.0000 C   0  0
  1  2  1  0
  2  3  2  0
  3  4  1  0
  4  5  1  0
  5  6  2  0
  6  7  1  0
  7  8  3  0
  4  9  2  0
  9 10  1  0
 10 11  1  0
 10 12  2  0
 12  2  1  0
 12 13  1  0
 13 14  1  0
 14 15  2  0
 15 16  1  0
 16 17  1  0
 17 18  1  0
 18 19  1  0
 19 20  1  0
 20 21  1  0
 21 22  1  0
 22 23  1  0
 23 24  2  0
 24 25  1  0
 25 26  2  0
 26 27  1  0
 27 28  1  0
 27 29  2  0
 29 23  1  0
 21 30  1  0
 30 31  1  0
 31 18  1  0
 16 32  2  0
 32 33  1  0
 33 34  1  0
 34 35  2  0
 35 36  1  0
 36 37  1  0
 37 14  1  0
 37 33  2  0
M  END
> <Smiles>
Cc1cc(/C=C/C#N)cc(C)c1Oc1nc(NC2CCN(Cc3cccc(Br)c3)CC2)nc2ccsc12

> <IC50_uM>
0.128

> <pIC50>
6.89279003

> <Activity>
1

$$$$

  SciTegic10102310092D

 32 35  0  0  0  0            999 V2000
    3.1676   -7.5606    0.0000 C   0  0
    1.7006   -7.2475    0.0000 C   0  0
    0.6960   -8.3614    0.0000 C   0  0
   -0.7710   -8.0483    0.0000 C   0  0
   -1.7756   -9.1622    0.0000 C   0  0
   -1.2333   -6.6213    0.0000 C   0  0
   -0.2287   -5.5075    0.0000 C   0  0
   -0.6913   -4.0797    0.0000 S   0  0
   -2.1584   -3.7671    0.0000 O   0  0
   -1.6957   -5.1937    0.0000 O   0  0
    0.3114   -2.9665    0.0000 C   0  0
    1.8032   -3.1233    0.0000 C   0  0
    2.5551   -4.4192    0.0000 C   0  0
    1.8074   -5.7196    0.0000 O   0  0
    4.0559   -4.4171    0.0000 N   0  0
    4.8090   -5.7153    0.0000 C   0  0
    6.3098   -5.7131    0.0000 C   0  0
    7.0629   -7.0113    0.0000 C   0  0
    8.5630   -7.0113    0.0000 C   0  0
    9.3130   -8.3103    0.0000 C   0  0
    8.5631   -9.6094    0.0000 C   0  0
    7.0631   -9.6094    0.0000 C   0  0
    6.3130   -8.3104    0.0000 C   0  0
    2.4133   -1.7530    0.0000 N   0  0
    1.2990   -0.7500    0.0000 C   0  0
    1.2990    0.7500    0.0000 C   0  0
    0.0000    1.5000    0.0000 C   0  0
   -1.2990    0.7500    0.0000 C   0  0
   -2.5981    1.5000    0.0000 Br  0  0
   -1.2990   -0.7500    0.0000 C   0  0
    0.0000   -1.5000    0.0000 C   0  0
    1.2383   -5.8206    0.0000 C   0  0
  1  2  1  0
  2  3  2  0
  3  4  1  0
  4  5  1  0
  4  6  2  0
  6  7  1  0
  7  8  1  0
  8  9  2  0
  8 10  2  0
  8 11  1  0
 11 12  2  0
 12 13  1  0
 13 14  2  0
 13 15  1  0
 15 16  1  0
 16 17  1  0
 17 18  1  0
 18 19  2  0
 19 20  1  0
 20 21  2  0
 21 22  1  0
 22 23  2  0
 23 18  1  0
 12 24  1  0
 24 25  1  0
 25 26  2  0
 26 27  1  0
 27 28  2  0
 28 29  1  0
 28 30  1  0
 30 31  2  0
 31 11  1  0
 31 25  1  0
  7 32  2  0
 32  2  1  0
M  END
> <Smiles>
Cc1cc(C)cc(S(=O)(=O)c2c(C(=O)NCCc3ccccc3)[nH]c3ccc(Br)cc23)c1

> <IC50_uM>
0.128

> <pIC50>
6.89279003

> <Activity>
1

$$$$

  SciTegic10102310092D

 29 30  0  0  1  0            999 V2000
    2.5981   -1.5000    0.0000 C   0  0
    1.2990   -0.7500    0.0000 C   0  0
    1.2990    0.7500    0.0000 C   0  0
    0.0000    1.5000    0.0000 N   0  0
    0.0000    3.0008    0.0000 C   0  0  1  0  0  0
    1.2121    3.8625    0.0000 C   0  0
    0.7463    5.2884    0.0000 C   0  0  2  0  0  0
    1.6261    6.5033    0.0000 O   0  0
   -0.7537    5.2860    0.0000 C   0  0  1  0  0  0
   -1.6337    6.4985    0.0000 C   0  0
   -1.0235    7.8697    0.0000 O   0  0
   -1.9051    9.0843    0.0000 P   0  0
   -3.3969    8.9278    0.0000 O   0  0
   -2.5156    7.7142    0.0000 O   0  0
   -1.2948   10.4555    0.0000 O   0  0
   -2.1764   11.6701    0.0000 P   0  0
   -3.6682   11.5135    0.0000 O   0  0
   -2.7869   10.3000    0.0000 O   0  0
   -1.5662   13.0413    0.0000 O   0  0
   -2.4477   14.2559    0.0000 P   0  0
   -1.8378   15.6263    0.0000 O   0  0
   -3.9395   14.0993    0.0000 O   0  0
   -3.3294   15.4694    0.0000 O   0  0
   -1.2149    3.8587    0.0000 O   0  0
   -1.2990    0.7500    0.0000 C   0  0
   -2.5981    1.5000    0.0000 O   0  0
   -1.2990   -0.7500    0.0000 N   0  0
    0.0000   -1.5000    0.0000 C   0  0
    0.0000   -3.0000    0.0000 O   0  0
  1  2  1  0
  2  3  2  0
  3  4  1  0
  5  4  1  6
  5  6  1  0
  6  7  1  0
  7  8  1  1
  7  9  1  0
  9 10  1  6
 10 11  1  0
 11 12  1  0
 12 13  2  0
 12 14  1  0
 12 15  1  0
 15 16  1  0
 16 17  2  0
 16 18  1  0
 16 19  1  0
 19 20  1  0
 20 21  2  0
 20 22  1  0
 20 23  1  0
  9 24  1  0
 24  5  1  0
  4 25  1  0
 25 26  2  0
 25 27  1  0
 27 28  1  0
 28  2  1  0
 28 29  2  0
M  END
> <Smiles>
Cc1cn([C@H]2C[C@H](O)[C@@H](COP(=O)(O)OP(=O)(O)OP(=O)(O)O)O2)c(=O)[nH]c1=O

> <IC50_uM>
0.13

> <pIC50>
6.886056648

> <Activity>
1

$$$$

  SciTegic10102310092D

 24 27  0  0  0  0            999 V2000
    3.5145   -2.2320    0.0000 C   0  0
    2.0759   -1.8072    0.0000 C   0  0
    1.6852   -0.3846    0.0000 C   0  0  3  0  0  0
    2.6548    0.7277    0.0000 C   0  0
    4.1268    0.4395    0.0000 C   0  0
    5.1124    1.5703    0.0000 C   0  0
    4.6260    2.9892    0.0000 C   0  0
    3.1539    3.2774    0.0000 C   0  0
    2.6674    4.6963    0.0000 I   0  0
    2.1683    2.1466    0.0000 C   0  0
    1.3514    1.0778    0.0000 O   0  0
    0.0000    1.7286    0.0000 C   0  0
    0.1115    3.2255    0.0000 C   0  0
   -1.1278    4.0705    0.0000 C   0  0
   -2.4793    3.4196    0.0000 C   0  0
   -2.5914    1.9238    0.0000 C   0  0
   -1.3515    1.0777    0.0000 C   0  0
   -1.6852   -0.3847    0.0000 N   0  0
   -3.0899   -0.9120    0.0000 C   0  0
   -3.0226   -2.4105    0.0000 C   0  0
   -1.5767   -2.8095    0.0000 C   0  0
   -0.7500   -1.5574    0.0000 C   0  0
    0.7500   -1.5574    0.0000 C   0  0
    1.4008   -2.9088    0.0000 O   0  0
  1  2  1  0
  3  2  1  4
  3  4  1  0
  4  5  2  0
  5  6  1  0
  6  7  2  0
  7  8  1  0
  8  9  1  0
  8 10  2  0
 10  4  1  0
  3 11  1  0
 11 12  1  0
 12 13  2  0
 13 14  1  0
 14 15  2  0
 15 16  1  0
 16 17  2  0
 17 12  1  0
 17 18  1  0
 18 19  1  0
 19 20  2  0
 20 21  1  0
 21 22  2  0
 22 18  1  0
 22 23  1  0
 23  3  1  0
 23 24  2  0
M  END
> <Smiles>
CCC1(c2cccc(I)c2)Oc2ccccc2-n2cccc2C1=O

> <IC50_uM>
0.13

> <pIC50>
6.886056648

> <Activity>
1

$$$$

  SciTegic10102310092D

 14 13  0  0  0  0            999 V2000
    0.0007    0.0004    0.0000 N   0  0
    1.3000    0.7500    0.0000 C   0  0
    2.6000    0.0000    0.0000 C   0  0
    3.9000    0.7500    0.0000 C   0  0
    5.2000    0.0000    0.0000 N   0  0
    6.5000    0.7500    0.0000 C   0  0
    7.7999    0.0000    0.0000 C   0  0
    9.0999    0.7500    0.0000 C   0  0
   10.3999    0.0000    0.0000 C   0  0
   11.6992    0.7496    0.0000 N   0  0
    5.2030   -1.5008    0.0000 N   0  3
    6.5039   -2.2494    0.0000 N   0  5
    6.5070   -3.7494    0.0000 O   0  0
    3.9053   -2.2531    0.0000 O   0  0
  1  2  1  0
  2  3  1  0
  3  4  1  0
  4  5  1  0
  5  6  1  0
  6  7  1  0
  7  8  1  0
  8  9  1  0
  9 10  1  0
  5 11  1  0
 11 12  1  0
 12 13  1  0
 11 14  2  0
M  CHG  2  11   1  12  -1
M  END
> <Smiles>
NCCCN(CCCCN)[N+]([N-]O)=O

> <IC50_uM>
0.131825674

> <pIC50>
6.88

> <Activity>
1

$$$$

  SciTegic10102310092D

 37 40  0  0  0  0            999 V2000
    2.5951   -3.0031    0.0000 C   0  0
    2.5973   -1.5031    0.0000 O   0  0
    1.2990   -0.7500    0.0000 C   0  0
    1.2990    0.7500    0.0000 C   0  0
    0.0000    1.5000    0.0000 C   0  0
   -0.0031    3.0008    0.0000 O   0  0
   -1.3039    3.7494    0.0000 C   0  0
   -1.3092    5.2494    0.0000 C   0  0
   -0.0128    6.0039    0.0000 C   0  0
   -2.6108    5.9949    0.0000 C   0  0
   -3.9073    5.2404    0.0000 C   0  0
   -5.2096    5.9863    0.0000 C   0  0
   -6.5112    6.7318    0.0000 N   0  0
   -3.9021    3.7404    0.0000 C   0  0
   -2.6005    2.9949    0.0000 C   0  0
   -2.5953    1.4949    0.0000 C   0  0
   -1.2990    0.7500    0.0000 C   0  0
   -1.2990   -0.7500    0.0000 C   0  0
   -2.5972   -1.5031    0.0000 N   0  0
   -2.5951   -3.0039    0.0000 C   0  0
   -3.8915   -3.7585    0.0000 C   0  0
   -3.8863   -5.2585    0.0000 C   0  0
   -2.5847   -6.0040    0.0000 N   0  0
   -2.5764   -7.5048    0.0000 C   0  0
   -1.2730   -8.2489    0.0000 C   0  0
   -1.2625   -9.7489    0.0000 C   0  0
    0.0417  -10.4898    0.0000 C   0  0
    1.3355   -9.7309    0.0000 C   0  0
    2.6404  -10.4723    0.0000 S   0  0
    3.9340   -9.7129    0.0000 N   0  0
    2.6517  -11.9722    0.0000 O   0  0
    3.9449  -11.2126    0.0000 O   0  0
    1.3251   -8.2309    0.0000 C   0  0
    0.0209   -7.4899    0.0000 C   0  0
   -1.2883   -5.2495    0.0000 C   0  0
   -1.2935   -3.7495    0.0000 C   0  0
    0.0000   -1.5000    0.0000 N   0  0
  1  2  1  0
  2  3  1  0
  3  4  2  0
  4  5  1  0
  5  6  1  0
  6  7  1  0
  7  8  2  0
  8  9  1  0
  8 10  1  0
 10 11  2  0
 11 12  1  0
 12 13  3  0
 11 14  1  0
 14 15  2  0
 15  7  1  0
 15 16  1  0
  5 17  2  0
 17 18  1  0
 18 19  1  0
 19 20  1  0
 20 21  1  0
 21 22  1  0
 22 23  1  0
 23 24  1  0
 24 25  1  0
 25 26  2  0
 26 27  1  0
 27 28  2  0
 28 29  1  0
 29 30  1  0
 29 31  2  0
 29 32  2  0
 28 33  1  0
 33 34  2  0
 34 25  1  0
 23 35  1  0
 35 36  1  0
 36 20  1  0
 18 37  2  0
 37  3  1  0
M  END
> <Smiles>
COc1cc(Oc2c(C)cc(C#N)cc2C)cc(NC2CCN(Cc3ccc(S(N)(=O)=O)cc3)CC2)n1

> <IC50_uM>
0.132

> <pIC50>
6.879426069

> <Activity>
1

$$$$

  SciTegic10102310092D

 28 31  0  0  0  0            999 V2000
    2.5981   -1.5000    0.0000 C   0  0
    1.2990   -0.7500    0.0000 C   0  0
    1.2990    0.7500    0.0000 C   0  0
    0.0000    1.5000    0.0000 C   0  0
    0.0000    3.0008    0.0000 C   0  0
    0.0000    4.5008    0.0000 N   0  0
   -1.2990    0.7500    0.0000 C   0  0
   -1.2990   -0.7500    0.0000 C   0  0
    0.0000   -1.5000    0.0000 C   0  0
    0.0000   -3.0008    0.0000 C   0  0
   -1.2978   -3.7529    0.0000 C   0  0
   -1.2955   -5.2529    0.0000 C   0  0
    0.0048   -6.0009    0.0000 N   0  0
    1.3026   -5.2488    0.0000 C   0  0
    2.6051   -5.9945    0.0000 N   0  0
    3.9026   -5.2401    0.0000 C   0  0
    5.2051   -5.9858    0.0000 C   0  0
    6.5555   -5.3626    0.0000 C   0  0
    7.5609   -6.4758    0.0000 C   0  0
    9.0532   -6.3165    0.0000 C   0  0
    9.7595   -4.9988    0.0000 C   0  0
   11.2587   -4.9523    0.0000 C   0  0
   12.0486   -6.2275    0.0000 C   0  0
   11.3393   -7.5491    0.0000 C   0  0
    9.8400   -7.5956    0.0000 N   0  0
    6.8130   -7.7760    0.0000 N   0  0
    5.3453   -7.4665    0.0000 N   0  0
    1.3002   -3.7488    0.0000 C   0  0
  1  2  1  0
  2  3  2  0
  3  4  1  0
  4  5  1  0
  5  6  3  0
  4  7  2  0
  7  8  1  0
  8  9  2  0
  9  2  1  0
  9 10  1  0
 10 11  2  0
 11 12  1  0
 12 13  2  0
 13 14  1  0
 14 15  1  0
 15 16  1  0
 16 17  1  0
 17 18  1  0
 18 19  2  0
 19 20  1  0
 20 21  2  0
 21 22  1  0
 22 23  2  0
 23 24  1  0
 24 25  2  0
 25 20  1  0
 19 26  1  0
 26 27  1  0
 27 17  2  0
 14 28  2  0
 28 10  1  0
M  END
> <Smiles>
Cc1cc(C#N)ccc1-c1ccnc(NCc2cc(-c3ccccn3)[nH]n2)c1

> <IC50_uM>
0.134

> <pIC50>
6.872895202

> <Activity>
1

$$$$

  SciTegic10102310092D

 37 41  0  0  0  0            999 V2000
   -2.6396  -10.4719    0.0000 C   0  0
   -1.3354   -9.7309    0.0000 C   0  0
   -0.0416  -10.4898    0.0000 C   0  0
    1.2626   -9.7488    0.0000 C   0  0
    1.2731   -8.2489    0.0000 C   0  0
    2.5765   -7.5048    0.0000 C   0  0
    2.5847   -6.0040    0.0000 N   0  0
    3.8864   -5.2585    0.0000 C   0  0
    3.8915   -3.7585    0.0000 C   0  0
    2.5951   -3.0039    0.0000 C   0  0
    2.5973   -1.5031    0.0000 N   0  0
    1.2990   -0.7500    0.0000 C   0  0
    1.2990    0.7500    0.0000 N   0  0
    0.0000    1.5000    0.0000 C   0  0
    0.0031    3.0008    0.0000 O   0  0
    1.3039    3.7494    0.0000 C   0  0
    1.3092    5.2494    0.0000 C   0  0
    0.0127    6.0039    0.0000 C   0  0
    2.6108    5.9949    0.0000 C   0  0
    3.9072    5.2405    0.0000 C   0  0
    5.2111    5.9837    0.0000 C   0  0
    6.5072    5.2270    0.0000 C   0  0
    7.8110    5.9702    0.0000 C   0  0
    9.1142    6.7130    0.0000 N   0  0
    3.9020    3.7405    0.0000 C   0  0
    2.6004    2.9949    0.0000 C   0  0
    2.5953    1.4950    0.0000 C   0  0
   -1.2990    0.7500    0.0000 C   0  0
   -2.7248    1.2135    0.0000 S   0  0
   -3.6065    0.0000    0.0000 C   0  0
   -2.7248   -1.2135    0.0000 C   0  0
   -1.2990   -0.7500    0.0000 C   0  0
    0.0000   -1.5000    0.0000 N   0  0
    1.2935   -3.7495    0.0000 C   0  0
    1.2883   -5.2495    0.0000 C   0  0
   -0.0209   -7.4899    0.0000 C   0  0
   -1.3250   -8.2309    0.0000 C   0  0
  1  2  1  0
  2  3  2  0
  3  4  1  0
  4  5  2  0
  5  6  1  0
  6  7  1  0
  7  8  1  0
  8  9  1  0
  9 10  1  0
 10 11  1  0
 11 12  1  0
 12 13  2  0
 13 14  1  0
 14 15  1  0
 15 16  1  0
 16 17  2  0
 17 18  1  0
 17 19  1  0
 19 20  2  0
 20 21  1  0
 21 22  2  0
 22 23  1  0
 23 24  3  0
 20 25  1  0
 25 26  2  0
 26 16  1  0
 26 27  1  0
 14 28  2  0
 28 29  1  0
 29 30  1  0
 30 31  2  0
 31 32  1  0
 32 28  1  0
 32 33  2  0
 33 12  1  0
 10 34  1  0
 34 35  1  0
 35  7  1  0
  5 36  1  0
 36 37  2  0
 37  2  1  0
M  END
> <Smiles>
Cc1ccc(CN2CCC(Nc3nc(Oc4c(C)cc(/C=C/C#N)cc4C)c4sccc4n3)CC2)cc1

> <IC50_uM>
0.138

> <pIC50>
6.860120914

> <Activity>
1

$$$$

  SciTegic10102310092D

 24 26  0  0  0  0            999 V2000
    3.1676   -7.5606    0.0000 C   0  0
    1.7006   -7.2475    0.0000 C   0  0
    0.6960   -8.3614    0.0000 C   0  0
   -0.7710   -8.0483    0.0000 C   0  0
   -1.7756   -9.1622    0.0000 C   0  0
   -1.2333   -6.6213    0.0000 C   0  0
   -0.2287   -5.5075    0.0000 C   0  0
   -0.6913   -4.0797    0.0000 S   0  0
   -2.1584   -3.7671    0.0000 O   0  0
   -1.6957   -5.1937    0.0000 O   0  0
    0.3114   -2.9665    0.0000 C   0  0
    1.8032   -3.1233    0.0000 C   0  0
    2.5551   -4.4192    0.0000 C   0  0
    1.8074   -5.7196    0.0000 N   0  0
    4.0551   -4.4171    0.0000 O   0  0
    2.4133   -1.7530    0.0000 N   0  0
    1.2990   -0.7500    0.0000 C   0  0
    1.2990    0.7500    0.0000 C   0  0
    0.0000    1.5000    0.0000 C   0  0
   -1.2990    0.7500    0.0000 C   0  0
   -2.5981    1.5000    0.0000 Cl  0  0
   -1.2990   -0.7500    0.0000 C   0  0
    0.0000   -1.5000    0.0000 C   0  0
    1.2383   -5.8206    0.0000 C   0  0
  1  2  1  0
  2  3  2  0
  3  4  1  0
  4  5  1  0
  4  6  2  0
  6  7  1  0
  7  8  1  0
  8  9  2  0
  8 10  2  0
  8 11  1  0
 11 12  2  0
 12 13  1  0
 13 14  1  0
 13 15  2  0
 12 16  1  0
 16 17  1  0
 17 18  2  0
 18 19  1  0
 19 20  2  0
 20 21  1  0
 20 22  1  0
 22 23  2  0
 23 11  1  0
 23 17  1  0
  7 24  2  0
 24  2  1  0
M  END
> <Smiles>
Cc1cc(C)cc(S(=O)(=O)c2c(C(N)=O)[nH]c3ccc(Cl)cc23)c1

> <IC50_uM>
0.14

> <pIC50>
6.853871964

> <Activity>
1

$$$$

  SciTegic10102310092D

 33 35  0  0  0  0            999 V2000
    2.5981   -1.5000    0.0000 C   0  0
    1.2990   -0.7500    0.0000 C   0  0
    1.2990    0.7500    0.0000 C   0  0
    0.0000    1.5000    0.0000 C   0  0
    0.0000    3.0008    0.0000 S   0  0
   -1.2993    3.7504    0.0000 N   0  0
    1.2985    3.7517    0.0000 O   0  0
   -0.0007    4.5008    0.0000 O   0  0
   -1.2990    0.7500    0.0000 C   0  0
   -1.2990   -0.7500    0.0000 C   0  0
    0.0000   -1.5000    0.0000 C   0  0
   -0.0031   -3.0008    0.0000 N   0  0
   -1.3039   -3.7494    0.0000 C   0  0
   -2.6016   -2.9971    0.0000 O   0  0
   -1.3070   -5.2502    0.0000 C   0  0
   -2.6078   -5.9988    0.0000 O   0  0
   -2.6109   -7.4996    0.0000 C   0  0
   -1.3118   -8.2497    0.0000 C   0  0
   -1.3119   -9.7497    0.0000 C   0  0
   -2.6109  -10.4997    0.0000 C   0  0
   -2.6110  -11.9997    0.0000 Cl  0  0
   -3.9100   -9.7497    0.0000 C   0  0
   -3.9099   -8.2497    0.0000 C   0  0
   -5.2112   -7.5019    0.0000 C   0  0
   -5.2139   -6.0019    0.0000 O   0  0
   -6.5099   -8.2542    0.0000 C   0  0
   -7.8116   -7.5088    0.0000 C   0  0
   -9.1080   -8.2633    0.0000 N   0  0
   -9.1028   -9.7633    0.0000 C   0  0
   -7.8012  -10.5088    0.0000 C   0  0
   -7.7960  -12.0096    0.0000 C   0  0
   -7.7908  -13.5096    0.0000 N   0  0
   -6.5048   -9.7543    0.0000 C   0  0
  1  2  1  0
  2  3  2  0
  3  4  1  0
  4  5  1  0
  5  6  1  0
  5  7  2  0
  5  8  2  0
  4  9  2  0
  9 10  1  0
 10 11  2  0
 11  2  1  0
 11 12  1  0
 12 13  1  0
 13 14  2  0
 13 15  1  0
 15 16  1  0
 16 17  1  0
 17 18  2  0
 18 19  1  0
 19 20  2  0
 20 21  1  0
 20 22  1  0
 22 23  2  0
 23 17  1  0
 23 24  1  0
 24 25  2  0
 24 26  1  0
 26 27  2  0
 27 28  1  0
 28 29  2  0
 29 30  1  0
 30 31  1  0
 31 32  3  0
 30 33  2  0
 33 26  1  0
M  END
> <Smiles>
Cc1cc(S(N)(=O)=O)ccc1NC(=O)COc1ccc(Cl)cc1C(=O)c1cncc(C#N)c1

> <IC50_uM>
0.14125

> <pIC50>
6.850011544

> <Activity>
1

$$$$

  SciTegic10102310092D

 14 15  0  0  0  0            999 V2000
    1.2990   -0.7500    0.0000 C   0  0
    2.5981   -1.5000    0.0000 O   0  0
    1.2990    0.7500    0.0000 C   0  0
    2.5972    1.5031    0.0000 C   0  0
    3.8990    0.7562    0.0000 C   0  0
    5.1976    1.5070    0.0000 C   0  0
    6.4972    0.7579    0.0000 C   0  0
    6.4982   -0.7421    0.0000 C   0  0
    5.1996   -1.4930    0.0000 C   0  0
    3.9001   -0.7439    0.0000 C   0  0
    0.0000    1.5000    0.0000 C   0  0
   -1.2990    0.7500    0.0000 N   0  0
   -1.2990   -0.7500    0.0000 C   0  0
    0.0000   -1.5000    0.0000 C   0  0
  1  2  2  0
  1  3  1  0
  3  4  2  0
  4  5  1  0
  5  6  2  0
  6  7  1  0
  7  8  2  0
  8  9  1  0
  9 10  2  0
 10  5  1  0
  3 11  1  0
 11 12  1  0
 12 13  1  0
 13 14  1  0
 14  1  1  0
M  END
> <Smiles>
C1(=O)\C(=C/c2ccccc2)\CNCC1

> <IC50_uM>
0.144543977

> <pIC50>
6.84

> <Activity>
1

$$$$

  SciTegic10102310092D

 34 37  0  0  0  0            999 V2000
    3.1676   -7.5606    0.0000 C   0  0
    1.7006   -7.2475    0.0000 C   0  0
    0.6960   -8.3614    0.0000 C   0  0
   -0.7710   -8.0483    0.0000 C   0  0
   -1.7756   -9.1622    0.0000 C   0  0
   -1.2333   -6.6213    0.0000 C   0  0
   -0.2287   -5.5075    0.0000 C   0  0
   -0.6913   -4.0797    0.0000 S   0  0
   -2.1584   -3.7671    0.0000 O   0  0
   -1.6957   -5.1937    0.0000 O   0  0
    0.3114   -2.9665    0.0000 C   0  0
    1.8032   -3.1233    0.0000 C   0  0
    2.5551   -4.4192    0.0000 C   0  0
    1.8074   -5.7196    0.0000 O   0  0
    4.0559   -4.4171    0.0000 N   0  0
    4.8090   -5.7153    0.0000 C   0  0
    6.3098   -5.7131    0.0000 C   0  0
    7.0575   -4.4127    0.0000 O   0  0
    7.0629   -7.0113    0.0000 N   0  0
    8.5638   -7.0091    0.0000 C   0  0
    9.3169   -8.3073    0.0000 C   0  0
   10.7977   -8.4451    0.0000 C   0  0
   11.1096   -9.9123    0.0000 C   0  0
    9.8106  -10.6624    0.0000 C   0  0
    8.6959   -9.6587    0.0000 O   0  0
    2.4133   -1.7530    0.0000 N   0  0
    1.2990   -0.7500    0.0000 C   0  0
    1.2990    0.7500    0.0000 C   0  0
    0.0000    1.5000    0.0000 C   0  0
   -1.2990    0.7500    0.0000 C   0  0
   -2.5981    1.5000    0.0000 Cl  0  0
   -1.2990   -0.7500    0.0000 C   0  0
    0.0000   -1.5000    0.0000 C   0  0
    1.2383   -5.8206    0.0000 C   0  0
  1  2  1  0
  2  3  2  0
  3  4  1  0
  4  5  1  0
  4  6  2  0
  6  7  1  0
  7  8  1  0
  8  9  2  0
  8 10  2  0
  8 11  1  0
 11 12  2  0
 12 13  1  0
 13 14  2  0
 13 15  1  0
 15 16  1  0
 16 17  1  0
 17 18  2  0
 17 19  1  0
 19 20  1  0
 20 21  1  0
 21 22  2  0
 22 23  1  0
 23 24  2  0
 24 25  1  0
 25 21  1  0
 12 26  1  0
 26 27  1  0
 27 28  2  0
 28 29  1  0
 29 30  2  0
 30 31  1  0
 30 32  1  0
 32 33  2  0
 33 11  1  0
 33 27  1  0
  7 34  2  0
 34  2  1  0
M  END
> <Smiles>
Cc1cc(C)cc(S(=O)(=O)c2c(C(=O)NCC(=O)NCc3ccco3)[nH]c3ccc(Cl)cc23)c1

> <IC50_uM>
0.145

> <pIC50>
6.838631998

> <Activity>
1

$$$$

  SciTegic10102310092D

 22 24  0  0  0  0            999 V2000
   -0.6923   -4.0811    0.0000 C   0  0
    0.3114   -2.9665    0.0000 C   0  0
    1.8032   -3.1233    0.0000 N   0  0
    2.4133   -1.7530    0.0000 N   0  0
    1.2990   -0.7500    0.0000 C   0  0
    1.2990    0.7500    0.0000 C   0  0
    0.0000    1.5000    0.0000 C   0  0
   -1.2990    0.7500    0.0000 C   0  0
   -2.5981    1.5000    0.0000 F   0  0
   -1.2990   -0.7500    0.0000 C   0  0
   -2.6003   -1.4978    0.0000 O   0  0
   -3.8990   -0.7455    0.0000 C   0  0
   -5.2007   -1.4909    0.0000 C   0  0
   -6.4972   -0.7365    0.0000 C   0  0
   -7.7995   -1.4824    0.0000 C   0  0
   -9.1011   -2.2279    0.0000 N   0  0
   -6.4920    0.7635    0.0000 C   0  0
   -5.1903    1.5090    0.0000 C   0  0
   -5.1852    3.0099    0.0000 C   0  0
   -5.1800    4.5099    0.0000 N   0  0
   -3.8939    0.7546    0.0000 C   0  0
    0.0000   -1.5000    0.0000 C   0  0
  1  2  1  0
  2  3  2  0
  3  4  1  0
  4  5  1  0
  5  6  2  0
  6  7  1  0
  7  8  2  0
  8  9  1  0
  8 10  1  0
 10 11  1  0
 11 12  1  0
 12 13  2  0
 13 14  1  0
 14 15  1  0
 15 16  3  0
 14 17  2  0
 17 18  1  0
 18 19  1  0
 19 20  3  0
 18 21  2  0
 21 12  1  0
 10 22  2  0
 22  2  1  0
 22  5  1  0
M  END
> <Smiles>
Cc1n[nH]c2ccc(F)c(Oc3cc(C#N)cc(C#N)c3)c12

> <IC50_uM>
0.145

> <pIC50>
6.838631998

> <Activity>
1

$$$$

  SciTegic10102310092D

 30 32  0  0  1  0            999 V2000
    3.1676   -7.5606    0.0000 C   0  0
    1.7006   -7.2475    0.0000 C   0  0
    0.6960   -8.3614    0.0000 C   0  0
   -0.7710   -8.0483    0.0000 C   0  0
   -1.7756   -9.1622    0.0000 C   0  0
   -1.2333   -6.6213    0.0000 C   0  0
   -0.2287   -5.5075    0.0000 C   0  0
   -0.6913   -4.0797    0.0000 S   0  0
   -2.1584   -3.7671    0.0000 O   0  0
   -1.6957   -5.1937    0.0000 O   0  0
    0.3114   -2.9665    0.0000 C   0  0
    1.8032   -3.1233    0.0000 C   0  0
    2.5551   -4.4192    0.0000 C   0  0
    1.8074   -5.7196    0.0000 O   0  0
    4.0559   -4.4171    0.0000 N   0  0
    4.8090   -5.7153    0.0000 C   0  0  2  0  0  0
    4.0613   -7.0156    0.0000 C   0  0
    6.3098   -5.7131    0.0000 C   0  0
    7.0629   -7.0113    0.0000 C   0  0
    6.3152   -8.3116    0.0000 N   0  0
    8.5629   -7.0091    0.0000 O   0  0
    2.4133   -1.7530    0.0000 N   0  0
    1.2990   -0.7500    0.0000 C   0  0
    1.2990    0.7500    0.0000 C   0  0
    0.0000    1.5000    0.0000 C   0  0
   -1.2990    0.7500    0.0000 C   0  0
   -2.5981    1.5000    0.0000 Cl  0  0
   -1.2990   -0.7500    0.0000 C   0  0
    0.0000   -1.5000    0.0000 C   0  0
    1.2383   -5.8206    0.0000 C   0  0
  1  2  1  0
  2  3  2  0
  3  4  1  0
  4  5  1  0
  4  6  2  0
  6  7  1  0
  7  8  1  0
  8  9  2  0
  8 10  2  0
  8 11  1  0
 11 12  2  0
 12 13  1  0
 13 14  2  0
 13 15  1  0
 15 16  1  0
 16 17  1  1
 16 18  1  0
 18 19  1  0
 19 20  1  0
 19 21  2  0
 12 22  1  0
 22 23  1  0
 23 24  2  0
 24 25  1  0
 25 26  2  0
 26 27  1  0
 26 28  1  0
 28 29  2  0
 29 11  1  0
 29 23  1  0
  7 30  2  0
 30  2  1  0
M  END
> <Smiles>
Cc1cc(C)cc(S(=O)(=O)c2c(C(=O)N[C@H](C)CC(N)=O)[nH]c3ccc(Cl)cc23)c1

> <IC50_uM>
0.147

> <pIC50>
6.832682665

> <Activity>
1

$$$$

  SciTegic10102310092D

 20 22  0  0  1  0            999 V2000
    0.4505   -8.1187    0.0000 C   0  0
   -0.6894   -7.1436    0.0000 C   0  0
   -1.8348   -6.1949    0.0000 C   0  0  2  0  0  0
   -3.2443   -6.6708    0.0000 C   0  0
   -4.0059   -6.0227    0.0000 O   0  0
   -0.4810   -5.5489    0.0000 O   0  0
   -0.6928   -4.0817    0.0000 C   0  0  1  0  0  0
    0.3114   -2.9665    0.0000 N   0  0
    1.8032   -3.1233    0.0000 C   0  0
    2.4133   -1.7530    0.0000 N   0  0
    1.2990   -0.7500    0.0000 C   0  0
    1.2990    0.7500    0.0000 C   0  0
    2.5981    1.5000    0.0000 O   0  0
    0.0000    1.5000    0.0000 N   0  0
   -1.2990    0.7500    0.0000 C   0  0
   -1.2990   -0.7500    0.0000 N   0  0
    0.0000   -1.5000    0.0000 C   0  0
   -2.1519   -3.7886    0.0000 C   0  0
   -2.8675   -5.1069    0.0000 C   0  0  2  0  0  0
   -3.8589   -5.2376    0.0000 O   0  0
  1  2  3  0
  3  2  1  1
  3  4  1  0
  4  5  1  0
  3  6  1  0
  6  7  1  0
  7  8  1  6
  8  9  1  0
  9 10  2  0
 10 11  1  0
 11 12  2  0
 12 13  1  0
 12 14  1  0
 14 15  2  0
 15 16  1  0
 16 17  2  0
 17 11  1  0
 17  8  1  0
  7 18  1  0
 18 19  1  0
 19  3  1  0
 19 20  1  1
M  END
> <Smiles>
C#C[C@]1(CO)O[C@@H](n2cnc3c(O)ncnc32)C[C@@H]1O

> <IC50_uM>
0.15

> <pIC50>
6.823908741

> <Activity>
1

$$$$

  SciTegic10102310092D

 33 36  0  0  0  0            999 V2000
    3.8983   -0.7459    0.0000 C   0  0
    2.6003   -1.4977    0.0000 C   0  0
    1.2990   -0.7500    0.0000 C   0  0
    1.2990    0.7500    0.0000 C   0  0
    0.0000    1.5000    0.0000 C   0  0
    0.0031    3.0008    0.0000 O   0  0
    1.3039    3.7494    0.0000 C   0  0
    2.6004    2.9949    0.0000 C   0  0
    3.9020    3.7405    0.0000 C   0  0
    3.9072    5.2405    0.0000 C   0  0
    2.6108    5.9949    0.0000 C   0  0
    1.3092    5.2494    0.0000 C   0  0
    0.0136    6.0070    0.0000 O   0  0
    0.0209    7.5078    0.0000 C   0  0
   -1.2746    8.2654    0.0000 C   0  0
   -1.2673    9.7662    0.0000 N   0  0
    0.0370   10.5073    0.0000 C   0  0
    0.0474   12.0073    0.0000 C   0  0
   -1.2464   12.7663    0.0000 C   0  0
   -1.2360   14.2662    0.0000 O   0  0
   -2.5506   12.0253    0.0000 N   0  0
   -2.5610   10.5253    0.0000 C   0  0
   -3.8653    9.7844    0.0000 O   0  0
   -1.2990    0.7500    0.0000 C   0  0
   -2.5981    1.5000    0.0000 C   0  0
   -1.2990   -0.7500    0.0000 C   0  0
   -2.5981   -1.5000    0.0000 C   0  0
   -2.5981   -3.0000    0.0000 C   0  0
   -3.8978   -3.7504    0.0000 C   0  0
   -5.1968   -4.5004    0.0000 N   0  0
   -1.2990   -3.7500    0.0000 C   0  0
    0.0000   -3.0000    0.0000 C   0  0
    0.0000   -1.5000    0.0000 C   0  0
  1  2  1  0
  2  3  1  0
  3  4  2  0
  4  5  1  0
  5  6  1  0
  6  7  1  0
  7  8  2  0
  8  9  1  0
  9 10  2  0
 10 11  1  0
 11 12  2  0
 12  7  1  0
 12 13  1  0
 13 14  1  0
 14 15  1  0
 15 16  1  0
 16 17  1  0
 17 18  2  0
 18 19  1  0
 19 20  2  0
 19 21  1  0
 21 22  1  0
 22 16  1  0
 22 23  2  0
  5 24  2  0
 24 25  1  0
 24 26  1  0
 26 27  2  0
 27 28  1  0
 28 29  1  0
 29 30  3  0
 28 31  2  0
 31 32  1  0
 32 33  2  0
 33  3  1  0
 33 26  1  0
M  END
> <Smiles>
CCc1cc(Oc2ccccc2OCCn2ccc(=O)[nH]c2=O)c(C)c2cc(C#N)ccc12

> <IC50_uM>
0.15

> <pIC50>
6.823908741

> <Activity>
1

$$$$

  SciTegic10102310092D

 24 26  0  0  1  0            999 V2000
    2.1651   -1.2500    0.0000 C   0  0
    1.2990   -0.7500    0.0000 C   0  0
    1.2990    0.7500    0.0000 C   0  0
    2.5978    1.5022    0.0000 C   0  0  2  0  0  0
    2.5953    3.0022    0.0000 C   0  0
    3.8990    0.7544    0.0000 C   0  0
    5.1982    1.5042    0.0000 C   0  0
    5.1983    3.0042    0.0000 F   0  0
    6.4972    0.7542    0.0000 C   0  0
    6.4971   -0.7458    0.0000 C   0  0
    5.1980   -1.4958    0.0000 C   0  0
    3.8990   -0.7457    0.0000 C   0  0
    3.0330   -1.2457    0.0000 F   0  0
    0.0000    1.5000    0.0000 N   0  0
   -1.2990    0.7500    0.0000 C   0  0
   -2.6003    1.4977    0.0000 S   0  0
   -3.8990    0.7455    0.0000 C   0  0
   -5.2526    1.3618    0.0000 C   0  0
   -6.2524    0.2436    0.0000 C   0  0
   -5.4979   -1.0529    0.0000 C   0  0
   -4.0317   -0.7359    0.0000 C   0  0
   -1.2990   -0.7500    0.0000 N   0  0
    0.0000   -1.5000    0.0000 C   0  0
    0.0000   -3.0000    0.0000 O   0  0
  1  2  1  0
  2  3  2  0
  3  4  1  0
  4  5  1  6
  4  6  1  0
  6  7  2  0
  7  8  1  0
  7  9  1  0
  9 10  2  0
 10 11  1  0
 11 12  2  0
 12  6  1  0
 12 13  1  0
  3 14  1  0
 14 15  2  0
 15 16  1  0
 16 17  1  0
 17 18  1  0
 18 19  1  0
 19 20  1  0
 20 21  1  0
 21 17  1  0
 15 22  1  0
 22 23  1  0
 23  2  1  0
 23 24  2  0
M  END
> <Smiles>
Cc1c([C@H](C)c2c(F)cccc2F)nc(SC2CCCC2)[nH]c1=O

> <IC50_uM>
0.15

> <pIC50>
6.823908741

> <Activity>
1

$$$$

  SciTegic10102310092D

 29 33  0  0  0  0            999 V2000
   -2.1584   -3.7671    0.0000 O   0  0
   -0.6913   -4.0797    0.0000 S   0  0
   -1.1543   -2.6530    0.0000 O   0  0
    0.3114   -2.9665    0.0000 C   0  0
    1.8032   -3.1233    0.0000 C   0  0
    2.5536   -4.4230    0.0000 C   0  0
    2.0412   -5.8141    0.0000 N   0  0
    3.2310   -6.7275    0.0000 C   0  0
    4.4674   -5.8782    0.0000 C   0  0
    5.8820   -6.3795    0.0000 C   0  0
    6.2630   -7.8251    0.0000 C   0  0
    7.7106   -8.2183    0.0000 C   0  0
    8.7749   -7.1614    0.0000 C   0  0
    8.3917   -5.7111    0.0000 C   0  0
    6.9441   -5.3179    0.0000 C   0  0
    4.0417   -4.4398    0.0000 N   0  0
    2.4133   -1.7530    0.0000 N   0  0
    1.2990   -0.7500    0.0000 C   0  0
    1.2990    0.7500    0.0000 C   0  0
    0.0000    1.5000    0.0000 C   0  0
   -1.2990    0.7500    0.0000 C   0  0
   -2.5981    1.5000    0.0000 Br  0  0
   -1.2990   -0.7500    0.0000 C   0  0
    0.0000   -1.5000    0.0000 C   0  0
   -0.2287   -5.5075    0.0000 N   0  0
   -1.1182   -6.6994    0.0000 C   0  0
   -0.2375   -7.9136    0.0000 C   0  0
    1.1895   -7.4513    0.0000 C   0  0
    1.1907   -5.9513    0.0000 C   0  0
  1  2  2  0
  2  3  2  0
  2  4  1  0
  4  5  2  0
  5  6  1  0
  6  7  2  0
  7  8  1  0
  8  9  2  0
  9 10  1  0
 10 11  2  0
 11 12  1  0
 12 13  2  0
 13 14  1  0
 14 15  2  0
 15 10  1  0
  9 16  1  0
 16  6  1  0
  5 17  1  0
 17 18  1  0
 18 19  2  0
 19 20  1  0
 20 21  2  0
 21 22  1  0
 21 23  1  0
 23 24  2  0
 24  4  1  0
 24 18  1  0
  2 25  1  0
 25 26  1  0
 26 27  1  0
 27 28  1  0
 28 29  1  0
 29 25  1  0
M  END
> <Smiles>
O=S(=O)(c1c(-c2ncc(-c3ccccc3)[nH]2)[nH]c2ccc(Br)cc12)N1CCCC1

> <IC50_uM>
0.15

> <pIC50>
6.823908741

> <Activity>
1

$$$$

  SciTegic10102310092D

 25 27  0  0  0  0            999 V2000
    3.9075   -3.7444    0.0000 C   0  0
    2.6060   -2.9986    0.0000 O   0  0
    2.6003   -1.4977    0.0000 C   0  0  3  0  0  0
    1.2990   -0.7500    0.0000 C   0  0
    1.2990    0.7500    0.0000 N   0  0
    0.0000    1.5000    0.0000 C   0  0
   -0.0031    3.0008    0.0000 S   0  0
   -1.3039    3.7494    0.0000 C   0  0
   -1.4470    5.2297    0.0000 C   0  0
   -2.9153    5.5365    0.0000 C   0  0
   -3.6607    4.2349    0.0000 C   0  0
   -2.6532    3.1236    0.0000 C   0  0
   -1.2990    0.7500    0.0000 N   0  0
   -1.2990   -0.7500    0.0000 C   0  0
   -2.5981   -1.5000    0.0000 O   0  0
    0.0000   -1.5000    0.0000 C   0  0
    0.0000   -3.0000    0.0000 C   0  0
    3.8990   -0.7455    0.0000 C   0  0
    5.2007   -1.4909    0.0000 C   0  0
    5.2060   -2.9909    0.0000 F   0  0
    6.4972   -0.7364    0.0000 C   0  0
    6.4920    0.7636    0.0000 C   0  0
    5.1903    1.5091    0.0000 C   0  0
    3.8939    0.7546    0.0000 C   0  0
    2.5923    1.5001    0.0000 Cl  0  0
  1  2  1  0
  3  2  1  4
  3  4  1  0
  4  5  1  0
  5  6  2  0
  6  7  1  0
  7  8  1  0
  8  9  1  0
  9 10  1  0
 10 11  1  0
 11 12  1  0
 12  8  1  0
  6 13  1  0
 13 14  1  0
 14 15  2  0
 14 16  1  0
 16  4  2  0
 16 17  1  0
  3 18  1  0
 18 19  2  0
 19 20  1  0
 19 21  1  0
 21 22  2  0
 22 23  1  0
 23 24  2  0
 24 18  1  0
 24 25  1  0
M  END
> <Smiles>
COC(c1nc(SC2CCCC2)[nH]c(=O)c1C)c1c(F)cccc1Cl

> <IC50_uM>
0.15

> <pIC50>
6.823908741

> <Activity>
1

$$$$

  SciTegic10102310092D

 24 25  0  0  0  0            999 V2000
    3.8912   -5.2570    0.0000 C   0  0
    3.8933   -3.7570    0.0000 C   0  0
    2.5951   -3.0039    0.0000 C   0  0
    2.5973   -1.5031    0.0000 N   0  0
    3.8976   -0.7553    0.0000 C   0  0
    1.2990   -0.7500    0.0000 C   0  0
    1.2990    0.7500    0.0000 N   0  0
    0.0000    1.5000    0.0000 C   0  0
    0.0031    3.0008    0.0000 C   0  0  3  0  0  0
   -1.2938    3.7562    0.0000 O   0  0
   -1.2891    5.2562    0.0000 C   0  0
    1.3039    3.7494    0.0000 C   0  0
    1.3092    5.2494    0.0000 C   0  0
    0.0127    6.0039    0.0000 F   0  0
    2.6108    5.9949    0.0000 C   0  0
    3.9072    5.2405    0.0000 C   0  0
    3.9020    3.7405    0.0000 C   0  0
    2.6004    2.9949    0.0000 C   0  0
    2.5953    1.4950    0.0000 F   0  0
   -1.2990    0.7500    0.0000 C   0  0
   -2.5981    1.5000    0.0000 C   0  0
   -1.2990   -0.7500    0.0000 C   0  0
   -2.5981   -1.5000    0.0000 O   0  0
    0.0000   -1.5000    0.0000 N   0  0
  1  2  1  0
  2  3  1  0
  3  4  1  0
  4  5  1  0
  4  6  1  0
  6  7  2  0
  7  8  1  0
  8  9  1  0
  9 10  1  4
 10 11  1  0
  9 12  1  0
 12 13  2  0
 13 14  1  0
 13 15  1  0
 15 16  2  0
 16 17  1  0
 17 18  2  0
 18 12  1  0
 18 19  1  0
  8 20  2  0
 20 21  1  0
 20 22  1  0
 22 23  2  0
 22 24  1  0
 24  6  1  0
M  END
> <Smiles>
CCCN(C)c1nc(C(OC)c2c(F)cccc2F)c(C)c(=O)[nH]1

> <IC50_uM>
0.15

> <pIC50>
6.823908741

> <Activity>
1

$$$$

  SciTegic10102310092D

 27 29  0  0  0  0            999 V2000
    2.5981   -1.5000    0.0000 C   0  0
    1.2990   -0.7500    0.0000 C   0  0
    1.2990    0.7500    0.0000 C   0  0
    2.5981    1.5000    0.0000 Cl  0  0
    0.0000    1.5000    0.0000 N   0  0
   -1.2990    0.7500    0.0000 C   0  0
   -2.6003    1.4977    0.0000 N   0  0
   -3.8990    0.7455    0.0000 C   0  0
   -5.2007    1.4909    0.0000 C   0  0
   -6.4972    0.7364    0.0000 C   0  0
   -6.4920   -0.7636    0.0000 C   0  0
   -7.7891   -1.5185    0.0000 C   0  0
   -9.0855   -2.2730    0.0000 N   0  0
   -5.1903   -1.5091    0.0000 C   0  0
   -3.8939   -0.7546    0.0000 C   0  0
   -1.2990   -0.7500    0.0000 N   0  0
    0.0000   -1.5000    0.0000 C   0  0
   -0.0031   -3.0008    0.0000 C   0  0  3  0  0  0
    1.2947   -3.7531    0.0000 C   0  0
   -1.3039   -3.7494    0.0000 C   0  0
   -1.3092   -5.2494    0.0000 C   0  0
   -0.0128   -6.0039    0.0000 F   0  0
   -2.6108   -5.9949    0.0000 C   0  0
   -3.9072   -5.2404    0.0000 C   0  0
   -3.9020   -3.7404    0.0000 C   0  0
   -2.6004   -2.9949    0.0000 C   0  0
   -2.5953   -1.4949    0.0000 F   0  0
  1  2  1  0
  2  3  2  0
  3  4  1  0
  3  5  1  0
  5  6  2  0
  6  7  1  0
  7  8  1  0
  8  9  2  0
  9 10  1  0
 10 11  2  0
 11 12  1  0
 12 13  3  0
 11 14  1  0
 14 15  2  0
 15  8  1  0
  6 16  1  0
 16 17  2  0
 17  2  1  0
 17 18  1  0
 18 19  1  4
 18 20  1  0
 20 21  2  0
 21 22  1  0
 21 23  1  0
 23 24  2  0
 24 25  1  0
 25 26  2  0
 26 20  1  0
 26 27  1  0
M  END
> <Smiles>
Cc1c(Cl)nc(Nc2ccc(C#N)cc2)nc1C(C)c1c(F)cccc1F

> <IC50_uM>
0.15

> <pIC50>
6.823908741

> <Activity>
1

$$$$

  SciTegic10102310092D

 33 35  0  0  0  0            999 V2000
    3.8983   -0.7512    0.0000 C   0  0
    2.5988   -1.5004    0.0000 C   0  0
    2.5983   -3.0004    0.0000 C   0  0
    3.8975   -2.2510    0.0000 C   0  0
    1.2990   -0.7500    0.0000 C   0  0
    1.2990    0.7500    0.0000 C   0  0
    0.0000    1.5000    0.0000 C   0  0
   -1.2990    0.7500    0.0000 C   0  0
   -2.5987    1.5004    0.0000 N   0  0
   -3.9492    0.8772    0.0000 N   0  0
   -4.9546    1.9903    0.0000 N   0  0
   -4.2067    3.2905    0.0000 N   0  0
   -2.7390    2.9810    0.0000 C   0  0
   -1.6216    3.9790    0.0000 S   0  0
   -1.9268    5.4485    0.0000 C   0  0
   -0.8074    6.4482    0.0000 C   0  0
    0.6172    5.9785    0.0000 O   0  0
   -1.1126    7.9177    0.0000 N   0  0
    0.0068    8.9174    0.0000 C   0  0
    1.4306    8.4453    0.0000 C   0  0
    2.5514    9.4422    0.0000 C   0  0
    2.2485   10.9113    0.0000 C   0  0
    3.3678   11.9111    0.0000 C   0  0
    3.0626   13.3805    0.0000 C   0  0
    4.1820   14.3803    0.0000 C   0  0
    3.8769   15.8489    0.0000 O   0  0
    5.6066   13.9106    0.0000 O   0  0
    0.8247   11.3835    0.0000 C   0  0
   -0.2961   10.3866    0.0000 C   0  0
   -1.7198   10.8588    0.0000 Cl  0  0
   -1.2990   -0.7500    0.0000 C   0  0
   -2.5981   -1.5000    0.0000 Cl  0  0
    0.0000   -1.5000    0.0000 C   0  0
  1  2  1  0
  2  3  1  0
  2  4  1  0
  2  5  1  0
  5  6  2  0
  6  7  1  0
  7  8  2  0
  8  9  1  0
  9 10  1  0
 10 11  2  0
 11 12  1  0
 12 13  2  0
 13  9  1  0
 13 14  1  0
 14 15  1  0
 15 16  1  0
 16 17  2  0
 16 18  1  0
 18 19  1  0
 19 20  2  0
 20 21  1  0
 21 22  2  0
 22 23  1  0
 23 24  1  0
 24 25  1  0
 25 26  2  0
 25 27  1  0
 22 28  1  0
 28 29  2  0
 29 19  1  0
 29 30  1  0
  8 31  1  0
 31 32  1  0
 31 33  2  0
 33  5  1  0
M  END
> <Smiles>
CC(C)(C)c1ccc(-n2nnnc2SCC(=O)Nc2ccc(CCC(=O)O)cc2Cl)c(Cl)c1

> <IC50_uM>
0.15

> <pIC50>
6.823908741

> <Activity>
1

$$$$

  SciTegic10102310092D

 31 35  0  0  0  0            999 V2000
    3.5145   -2.2320    0.0000 C   0  0
    2.0759   -1.8072    0.0000 C   0  0
    1.6852   -0.3846    0.0000 C   0  0  3  0  0  0
    2.6548    0.7277    0.0000 C   0  0
    4.1268    0.4395    0.0000 C   0  0
    5.1124    1.5703    0.0000 C   0  0
    4.6260    2.9892    0.0000 C   0  0
    5.6098    4.1226    0.0000 C   0  0
    5.1210    5.5416    0.0000 S   0  0
    6.1048    6.6750    0.0000 C   0  0
    5.6184    8.0940    0.0000 C   0  0
    6.6040    9.2247    0.0000 C   0  0
    8.0761    8.9366    0.0000 C   0  0
    8.5626    7.5177    0.0000 C   0  0
    7.5770    6.3869    0.0000 C   0  0
    3.1539    3.2774    0.0000 C   0  0
    2.1683    2.1466    0.0000 C   0  0
    1.3514    1.0778    0.0000 O   0  0
    0.0000    1.7286    0.0000 C   0  0
    0.1115    3.2255    0.0000 C   0  0
   -1.1278    4.0705    0.0000 C   0  0
   -2.4793    3.4196    0.0000 C   0  0
   -2.5914    1.9238    0.0000 C   0  0
   -1.3515    1.0777    0.0000 C   0  0
   -1.6852   -0.3847    0.0000 N   0  0
   -3.0899   -0.9120    0.0000 C   0  0
   -3.0226   -2.4105    0.0000 C   0  0
   -1.5767   -2.8095    0.0000 C   0  0
   -0.7500   -1.5574    0.0000 C   0  0
    0.7500   -1.5574    0.0000 C   0  0
    1.4008   -2.9088    0.0000 O   0  0
  1  2  1  0
  3  2  1  4
  3  4  1  0
  4  5  2  0
  5  6  1  0
  6  7  2  0
  7  8  1  0
  8  9  1  0
  9 10  1  0
 10 11  2  0
 11 12  1  0
 12 13  2  0
 13 14  1  0
 14 15  2  0
 15 10  1  0
  7 16  1  0
 16 17  2  0
 17  4  1  0
  3 18  1  0
 18 19  1  0
 19 20  2  0
 20 21  1  0
 21 22  2  0
 22 23  1  0
 23 24  2  0
 24 19  1  0
 24 25  1  0
 25 26  1  0
 26 27  2  0
 27 28  1  0
 28 29  2  0
 29 25  1  0
 29 30  1  0
 30  3  1  0
 30 31  2  0
M  END
> <Smiles>
CCC1(c2ccc(CSc3ccccc3)cc2)Oc2ccccc2-n2cccc2C1=O

> <IC50_uM>
0.15

> <pIC50>
6.823908741

> <Activity>
1

$$$$

  SciTegic10102310092D

 29 33  0  0  0  0            999 V2000
    2.5951   -3.0031    0.0000 C   0  0
    2.5973   -1.5031    0.0000 O   0  0
    1.2990   -0.7500    0.0000 C   0  0
    1.2990    0.7500    0.0000 C   0  0
    0.0000    1.5000    0.0000 C   0  0
   -1.2990    0.7500    0.0000 C   0  0
   -2.7248    1.2135    0.0000 N   0  0
   -3.6065    0.0000    0.0000 C   0  0
   -5.1072    0.0000    0.0000 C   0  0
   -5.8659   -1.2803    0.0000 N   0  0
   -7.3235   -0.9297    0.0000 C   0  0
   -8.5599   -1.7791    0.0000 C   0  0
   -9.9136   -1.1330    0.0000 C   0  0
  -10.0310    0.3624    0.0000 C   0  0
  -11.3847    1.0085    0.0000 Br  0  0
   -8.7946    1.2117    0.0000 C   0  0
   -7.4408    0.5657    0.0000 C   0  0
   -6.0557    1.1393    0.0000 C   0  0
   -5.6935    2.5930    0.0000 S   0  0
   -4.2515    3.0061    0.0000 O   0  0
   -4.6146    1.5510    0.0000 O   0  0
   -6.7725    3.6362    0.0000 N   0  0
   -8.2341    3.3613    0.0000 C   0  0
   -8.9375    4.6861    0.0000 C   0  0
   -7.8949    5.7645    0.0000 C   0  0
   -6.5471    5.1062    0.0000 C   0  0
   -2.7248   -1.2135    0.0000 N   0  0
   -1.2990   -0.7500    0.0000 C   0  0
    0.0000   -1.5000    0.0000 C   0  0
  1  2  1  0
  2  3  1  0
  3  4  2  0
  4  5  1  0
  5  6  2  0
  6  7  1  0
  7  8  2  0
  8  9  1  0
  9 10  1  0
 10 11  1  0
 11 12  2  0
 12 13  1  0
 13 14  2  0
 14 15  1  0
 14 16  1  0
 16 17  2  0
 17 11  1  0
 17 18  1  0
 18  9  2  0
 18 19  1  0
 19 20  2  0
 19 21  2  0
 19 22  1  0
 22 23  1  0
 23 24  1  0
 24 25  1  0
 25 26  1  0
 26 22  1  0
  8 27  1  0
 27 28  1  0
 28  6  1  0
 28 29  2  0
 29  3  1  0
M  END
> <Smiles>
COc1ccc2nc(-c3[nH]c4ccc(Br)cc4c3S(=O)(=O)N3CCCC3)[nH]c2c1

> <IC50_uM>
0.15

> <pIC50>
6.823908741

> <Activity>
1

$$$$

  SciTegic10102310092D

 30 33  0  0  0  0            999 V2000
    4.8689    3.5238    0.0000 O   0  0
    5.9880    2.5249    0.0000 C   0  0
    5.6819    1.0557    0.0000 C   0  0
    4.2567    0.5852    0.0000 S   0  0
    3.9511   -0.8815    0.0000 C   0  0
    4.9531   -1.9978    0.0000 N   0  0
    4.2010   -3.2956    0.0000 N   0  0
    2.7343   -2.9815    0.0000 N   0  0
    2.5987   -1.5004    0.0000 N   0  0
    1.2990   -0.7500    0.0000 C   0  0
    1.2990    0.7500    0.0000 C   0  0
    0.0000    1.5000    0.0000 C   0  0
   -1.2990    0.7500    0.0000 C   0  0
   -2.5987    1.5004    0.0000 C   0  0
   -3.2716    2.7526    0.0000 C   0  0
   -4.0195    1.4524    0.0000 C   0  0
   -1.2990   -0.7500    0.0000 C   0  0
    0.0000   -1.5000    0.0000 C   0  0
    0.0000   -3.0000    0.0000 Cl  0  0
    7.4132    2.9954    0.0000 N   0  0
    7.7193    4.4647    0.0000 C   0  0
    6.5985    5.4617    0.0000 C   0  0
    6.9014    6.9308    0.0000 C   0  0
    8.3252    7.4030    0.0000 C   0  0
    8.6313    8.8722    0.0000 C   0  0
   10.0557    9.3424    0.0000 O   0  0
    7.5122    9.8711    0.0000 O   0  0
    9.4460    6.4061    0.0000 C   0  0
    9.1430    4.9370    0.0000 C   0  0
   10.2639    3.9401    0.0000 Cl  0  0
  1  2  2  0
  2  3  1  0
  3  4  1  0
  4  5  1  0
  5  6  2  0
  6  7  1  0
  7  8  2  0
  8  9  1  0
  9  5  1  0
  9 10  1  0
 10 11  2  0
 11 12  1  0
 12 13  2  0
 13 14  1  0
 14 15  1  0
 15 16  1  0
 16 14  1  0
 13 17  1  0
 17 18  2  0
 18 10  1  0
 18 19  1  0
  2 20  1  0
 20 21  1  0
 21 22  2  0
 22 23  1  0
 23 24  2  0
 24 25  1  0
 25 26  2  0
 25 27  1  0
 24 28  1  0
 28 29  2  0
 29 21  1  0
 29 30  1  0
M  END
> <Smiles>
O=C(CSc1nnnn1-c1ccc(C2CC2)cc1Cl)Nc1ccc(C(=O)O)cc1Cl

> <IC50_uM>
0.151

> <pIC50>
6.821023053

> <Activity>
1

$$$$

  SciTegic10102310092D

 37 41  0  0  0  0            999 V2000
    2.5923    1.5001    0.0000 C   0  0
    3.8939    0.7546    0.0000 C   0  0
    5.1903    1.5091    0.0000 C   0  0
    6.4920    0.7636    0.0000 C   0  0
    7.7907    1.5158    0.0000 C   0  0
    9.0920    0.7680    0.0000 C   0  0
   10.3907    1.5203    0.0000 C   0  0
   11.6886    2.2721    0.0000 N   0  0
    6.4972   -0.7364    0.0000 C   0  0
    5.2007   -1.4909    0.0000 C   0  0
    5.2059   -2.9909    0.0000 C   0  0
    3.8990   -0.7455    0.0000 C   0  0
    2.6003   -1.4977    0.0000 O   0  0
    1.2990   -0.7500    0.0000 C   0  0
    1.2990    0.7500    0.0000 N   0  0
    0.0000    1.5000    0.0000 C   0  0
   -0.0031    3.0008    0.0000 N   0  0
   -1.3039    3.7494    0.0000 C   0  0
   -1.3092    5.2494    0.0000 C   0  0
   -2.6108    5.9949    0.0000 C   0  0
   -3.9073    5.2404    0.0000 N   0  0
   -5.2112    5.9836    0.0000 C   0  0
   -6.5072    5.2269    0.0000 C   0  0
   -7.8115    5.9678    0.0000 C   0  0
   -9.1053    5.2088    0.0000 C   0  0
   -9.0949    3.7089    0.0000 C   0  0
  -10.3887    2.9499    0.0000 Cl  0  0
   -7.7907    2.9679    0.0000 C   0  0
   -6.4969    3.7269    0.0000 C   0  0
   -3.9021    3.7404    0.0000 C   0  0
   -2.6005    2.9949    0.0000 C   0  0
   -1.2990    0.7500    0.0000 N   0  0
   -1.2990   -0.7500    0.0000 C   0  0
   -2.4133   -1.7530    0.0000 C   0  0
   -1.8032   -3.1233    0.0000 C   0  0
   -0.3114   -2.9665    0.0000 S   0  0
    0.0000   -1.5000    0.0000 C   0  0
  1  2  1  0
  2  3  2  0
  3  4  1  0
  4  5  1  0
  5  6  2  0
  6  7  1  0
  7  8  3  0
  4  9  2  0
  9 10  1  0
 10 11  1  0
 10 12  2  0
 12  2  1  0
 12 13  1  0
 13 14  1  0
 14 15  2  0
 15 16  1  0
 16 17  1  0
 17 18  1  0
 18 19  1  0
 19 20  1  0
 20 21  1  0
 21 22  1  0
 22 23  1  0
 23 24  2  0
 24 25  1  0
 25 26  2  0
 26 27  1  0
 26 28  1  0
 28 29  2  0
 29 23  1  0
 21 30  1  0
 30 31  1  0
 31 18  1  0
 16 32  2  0
 32 33  1  0
 33 34  1  0
 34 35  2  0
 35 36  1  0
 36 37  1  0
 37 14  1  0
 37 33  2  0
M  END
> <Smiles>
Cc1cc(/C=C/C#N)cc(C)c1Oc1nc(NC2CCN(Cc3ccc(Cl)cc3)CC2)nc2ccsc12

> <IC50_uM>
0.152

> <pIC50>
6.818156412

> <Activity>
1

$$$$

  SciTegic10102310092D

 39 43  0  0  0  0            999 V2000
    2.5923    1.5001    0.0000 C   0  0
    3.8939    0.7546    0.0000 C   0  0
    5.1903    1.5091    0.0000 C   0  0
    6.4920    0.7636    0.0000 C   0  0
    7.7891    1.5185    0.0000 C   0  0
    9.0856    2.2729    0.0000 N   0  0
    6.4972   -0.7364    0.0000 C   0  0
    5.2007   -1.4909    0.0000 C   0  0
    5.2059   -2.9909    0.0000 C   0  0
    3.8990   -0.7455    0.0000 C   0  0
    2.6003   -1.4977    0.0000 O   0  0
    1.2990   -0.7500    0.0000 C   0  0
    1.2990    0.7500    0.0000 N   0  0
    0.0000    1.5000    0.0000 C   0  0
   -0.0031    3.0008    0.0000 N   0  0
   -1.3039    3.7494    0.0000 C   0  0  3  0  0  0
   -1.3092    5.2494    0.0000 C   0  0
   -2.6108    5.9949    0.0000 C   0  0
   -3.9073    5.2404    0.0000 C   0  0  3  0  0  0
   -5.2112    5.9836    0.0000 N   0  0
   -6.5072    5.2269    0.0000 C   0  0
   -7.8111    5.9701    0.0000 C   0  0
   -9.1076    5.2156    0.0000 C   0  0
  -10.4092    5.9611    0.0000 C   0  0
  -10.4145    7.4611    0.0000 C   0  0
  -11.7168    8.2070    0.0000 S   0  0
  -11.7216    9.7070    0.0000 N   0  0
  -13.0137    7.4533    0.0000 O   0  0
  -13.0181    8.9531    0.0000 O   0  0
   -9.1180    8.2156    0.0000 C   0  0
   -7.8164    7.4702    0.0000 C   0  0
   -3.9021    3.7404    0.0000 C   0  0
   -2.6005    2.9949    0.0000 C   0  0
   -1.2990    0.7500    0.0000 N   0  0
   -1.2990   -0.7500    0.0000 C   0  0
   -2.4133   -1.7530    0.0000 C   0  0
   -1.8032   -3.1233    0.0000 C   0  0
   -0.3114   -2.9665    0.0000 S   0  0
    0.0000   -1.5000    0.0000 C   0  0
  1  2  1  0
  2  3  2  0
  3  4  1  0
  4  5  1  0
  5  6  3  0
  4  7  2  0
  7  8  1  0
  8  9  1  0
  8 10  2  0
 10  2  1  0
 10 11  1  0
 11 12  1  0
 12 13  2  0
 13 14  1  0
 14 15  1  0
 16 15  1  4
 16 17  1  0
 17 18  1  0
 18 19  1  0
 19 20  1  4
 20 21  1  0
 21 22  1  0
 22 23  2  0
 23 24  1  0
 24 25  2  0
 25 26  1  0
 26 27  1  0
 26 28  2  0
 26 29  2  0
 25 30  1  0
 30 31  2  0
 31 22  1  0
 19 32  1  0
 32 33  1  0
 33 16  1  0
 14 34  2  0
 34 35  1  0
 35 36  1  0
 36 37  2  0
 37 38  1  0
 38 39  1  0
 39 12  1  0
 39 35  2  0
M  END
> <Smiles>
Cc1cc(C#N)cc(C)c1Oc1nc(NC2CCC(NCc3ccc(S(N)(=O)=O)cc3)CC2)nc2ccsc12

> <IC50_uM>
0.152

> <pIC50>
6.818156412

> <Activity>
1

$$$$

  SciTegic10102310092D

 37 41  0  0  0  0            999 V2000
    2.5923    1.5001    0.0000 C   0  0
    3.8939    0.7546    0.0000 C   0  0
    5.1903    1.5091    0.0000 C   0  0
    6.4920    0.7636    0.0000 C   0  0
    7.7907    1.5158    0.0000 C   0  0
    9.0920    0.7680    0.0000 C   0  0
   10.3907    1.5203    0.0000 C   0  0
   11.6886    2.2721    0.0000 N   0  0
    6.4972   -0.7364    0.0000 C   0  0
    5.2007   -1.4909    0.0000 C   0  0
    5.2059   -2.9909    0.0000 C   0  0
    3.8990   -0.7455    0.0000 C   0  0
    2.6003   -1.4977    0.0000 O   0  0
    1.2990   -0.7500    0.0000 C   0  0
    1.2990    0.7500    0.0000 N   0  0
    0.0000    1.5000    0.0000 C   0  0
   -0.0031    3.0008    0.0000 N   0  0
   -1.3039    3.7494    0.0000 C   0  0
   -1.3092    5.2494    0.0000 C   0  0
   -2.6108    5.9949    0.0000 C   0  0
   -3.9073    5.2404    0.0000 N   0  0
   -5.2112    5.9836    0.0000 C   0  0
   -6.5072    5.2269    0.0000 C   0  0
   -7.8115    5.9678    0.0000 C   0  0
   -9.1053    5.2088    0.0000 C   0  0
   -9.0949    3.7089    0.0000 C   0  0
  -10.3887    2.9499    0.0000 Br  0  0
   -7.7907    2.9679    0.0000 C   0  0
   -6.4969    3.7269    0.0000 C   0  0
   -3.9021    3.7404    0.0000 C   0  0
   -2.6005    2.9949    0.0000 C   0  0
   -1.2990    0.7500    0.0000 N   0  0
   -1.2990   -0.7500    0.0000 C   0  0
   -2.4133   -1.7530    0.0000 C   0  0
   -1.8032   -3.1233    0.0000 C   0  0
   -0.3114   -2.9665    0.0000 S   0  0
    0.0000   -1.5000    0.0000 C   0  0
  1  2  1  0
  2  3  2  0
  3  4  1  0
  4  5  1  0
  5  6  2  0
  6  7  1  0
  7  8  3  0
  4  9  2  0
  9 10  1  0
 10 11  1  0
 10 12  2  0
 12  2  1  0
 12 13  1  0
 13 14  1  0
 14 15  2  0
 15 16  1  0
 16 17  1  0
 17 18  1  0
 18 19  1  0
 19 20  1  0
 20 21  1  0
 21 22  1  0
 22 23  1  0
 23 24  2  0
 24 25  1  0
 25 26  2  0
 26 27  1  0
 26 28  1  0
 28 29  2  0
 29 23  1  0
 21 30  1  0
 30 31  1  0
 31 18  1  0
 16 32  2  0
 32 33  1  0
 33 34  1  0
 34 35  2  0
 35 36  1  0
 36 37  1  0
 37 14  1  0
 37 33  2  0
M  END
> <Smiles>
Cc1cc(/C=C/C#N)cc(C)c1Oc1nc(NC2CCN(Cc3ccc(Br)cc3)CC2)nc2ccsc12

> <IC50_uM>
0.154

> <pIC50>
6.812479279

> <Activity>
1

$$$$

  SciTegic10102310092D

 25 27  0  0  0  0            999 V2000
    3.8983   -0.7566    0.0000 C   0  0
    2.5973   -1.5031    0.0000 C   0  0
    1.2990   -0.7500    0.0000 C   0  0
    1.2990    0.7500    0.0000 C   0  0
    2.5981    1.5000    0.0000 C   0  0
    0.0000    1.5000    0.0000 N   0  0
   -1.2990    0.7500    0.0000 C   0  0
   -2.5981    1.5000    0.0000 O   0  0
   -1.2990   -0.7500    0.0000 C   0  0
   -2.5987   -1.5004    0.0000 N   0  0
   -3.8991   -0.7525    0.0000 C   0  0
   -5.1969   -1.5046    0.0000 C   0  0
   -5.1945   -3.0046    0.0000 O   0  0
   -3.8943   -3.7525    0.0000 C   0  0
   -2.5964   -3.0004    0.0000 C   0  0
    0.0000   -1.5000    0.0000 C   0  0
    0.0031   -3.0008    0.0000 C   0  0
    1.3039   -3.7494    0.0000 C   0  0
    1.3092   -5.2494    0.0000 C   0  0
    2.6108   -5.9949    0.0000 C   0  0
    2.6160   -7.4949    0.0000 C   0  0
    3.9073   -5.2404    0.0000 C   0  0
    3.9021   -3.7404    0.0000 C   0  0
    5.1985   -2.9859    0.0000 C   0  0
    2.6004   -2.9949    0.0000 C   0  0
  1  2  1  0
  2  3  1  0
  3  4  2  0
  4  5  1  0
  4  6  1  0
  6  7  1  0
  7  8  2  0
  7  9  1  0
  9 10  1  0
 10 11  1  0
 11 12  1  0
 12 13  1  0
 13 14  1  0
 14 15  1  0
 15 10  1  0
  9 16  2  0
 16  3  1  0
 16 17  1  0
 17 18  1  0
 18 19  2  0
 19 20  1  0
 20 21  1  0
 20 22  2  0
 22 23  1  0
 23 24  1  0
 23 25  2  0
 25 18  1  0
M  END
> <Smiles>
CCc1c(C)[nH]c(=O)c(N2CCOCC2)c1Cc1cc(C)cc(C)c1

> <IC50_uM>
0.158

> <pIC50>
6.801342913

> <Activity>
1

$$$$

  SciTegic10102310092D

 46 51  0  0  0  0            999 V2000
    2.5923    1.5001    0.0000 C   0  0
    3.8939    0.7546    0.0000 C   0  0
    5.1903    1.5091    0.0000 C   0  0
    6.4920    0.7636    0.0000 C   0  0
    7.7891    1.5185    0.0000 C   0  0
    9.0856    2.2729    0.0000 N   0  0
    6.4972   -0.7364    0.0000 C   0  0
    5.2007   -1.4909    0.0000 C   0  0
    5.2059   -2.9909    0.0000 C   0  0
    3.8990   -0.7455    0.0000 C   0  0
    2.6003   -1.4977    0.0000 O   0  0
    1.2990   -0.7500    0.0000 C   0  0
    1.2990    0.7500    0.0000 N   0  0
    0.0000    1.5000    0.0000 C   0  0
   -0.0031    3.0008    0.0000 N   0  0
   -1.3039    3.7494    0.0000 C   0  0
   -1.3092    5.2494    0.0000 C   0  0
   -2.6108    5.9949    0.0000 C   0  0
   -3.9073    5.2404    0.0000 N   0  0
   -5.2112    5.9836    0.0000 C   0  0
   -6.5072    5.2269    0.0000 C   0  0
   -7.8115    5.9678    0.0000 C   0  0
   -9.1053    5.2088    0.0000 C   0  0
   -9.0949    3.7089    0.0000 C   0  0
  -10.3879    2.9468    0.0000 C   0  0
  -11.6934    3.6855    0.0000 N   0  0
  -10.3754    1.4469    0.0000 O   0  0
   -7.7907    2.9679    0.0000 C   0  0
   -6.4969    3.7269    0.0000 C   0  0
   -3.9021    3.7404    0.0000 C   0  0
   -2.6005    2.9949    0.0000 C   0  0
   -1.2990    0.7500    0.0000 N   0  0
   -1.2990   -0.7500    0.0000 C   0  0
   -2.4133   -1.7530    0.0000 C   0  0
   -1.8032   -3.1233    0.0000 C   0  0
   -0.3114   -2.9665    0.0000 N   0  0
    0.6890   -4.0818    0.0000 C   0  0
    0.2235   -5.5086    0.0000 O   0  0
    1.2256   -6.6258    0.0000 C   0  0
    0.7601   -8.0526    0.0000 C   0  0
    1.7601   -9.1707    0.0000 C   0  0
    1.2919  -10.5957    0.0000 C   0  0
   -0.1764  -10.9028    0.0000 C   0  0
   -1.1764   -9.7848    0.0000 C   0  0
   -0.7082   -8.3597    0.0000 C   0  0
    0.0000   -1.5000    0.0000 C   0  0
  1  2  1  0
  2  3  2  0
  3  4  1  0
  4  5  1  0
  5  6  3  0
  4  7  2  0
  7  8  1  0
  8  9  1  0
  8 10  2  0
 10  2  1  0
 10 11  1  0
 11 12  1  0
 12 13  2  0
 13 14  1  0
 14 15  1  0
 15 16  1  0
 16 17  1  0
 17 18  1  0
 18 19  1  0
 19 20  1  0
 20 21  1  0
 21 22  2  0
 22 23  1  0
 23 24  2  0
 24 25  1  0
 25 26  1  0
 25 27  2  0
 24 28  1  0
 28 29  2  0
 29 21  1  0
 19 30  1  0
 30 31  1  0
 31 16  1  0
 14 32  2  0
 32 33  1  0
 33 34  1  0
 34 35  2  0
 35 36  1  0
 36 37  1  0
 37 38  1  0
 38 39  1  0
 39 40  1  0
 40 41  2  0
 41 42  1  0
 42 43  2  0
 43 44  1  0
 44 45  2  0
 45 40  1  0
 36 46  1  0
 46 12  1  0
 46 33  2  0
M  END
> <Smiles>
Cc1cc(C#N)cc(C)c1Oc1nc(NC2CCN(Cc3ccc(C(N)=O)cc3)CC2)nc2ccn(COCc3ccccc3)c12

> <IC50_uM>
0.158

> <pIC50>
6.801342913

> <Activity>
1

$$$$

  SciTegic10102310092D

 32 35  0  0  0  0            999 V2000
    3.1676   -7.5606    0.0000 C   0  0
    1.7006   -7.2475    0.0000 C   0  0
    0.6960   -8.3614    0.0000 C   0  0
   -0.7710   -8.0483    0.0000 C   0  0
   -1.7756   -9.1622    0.0000 C   0  0
   -1.2333   -6.6213    0.0000 C   0  0
   -0.2287   -5.5075    0.0000 C   0  0
   -0.6913   -4.0797    0.0000 S   0  0
   -2.1584   -3.7671    0.0000 O   0  0
   -1.6957   -5.1937    0.0000 O   0  0
    0.3114   -2.9665    0.0000 C   0  0
    1.8032   -3.1233    0.0000 C   0  0
    2.5551   -4.4192    0.0000 C   0  0
    1.8074   -5.7196    0.0000 O   0  0
    4.0559   -4.4171    0.0000 N   0  0
    4.8090   -5.7153    0.0000 C   0  0
    6.3098   -5.7131    0.0000 C   0  0
    7.0629   -7.0113    0.0000 N   0  0
    8.5438   -7.1491    0.0000 C   0  0
    8.8557   -8.6163    0.0000 C   0  0
    7.5567   -9.3664    0.0000 C   0  0
    6.4419   -8.3627    0.0000 C   0  0
    2.4133   -1.7530    0.0000 N   0  0
    1.2990   -0.7500    0.0000 C   0  0
    1.2990    0.7500    0.0000 C   0  0
    0.0000    1.5000    0.0000 C   0  0
   -1.2990    0.7500    0.0000 C   0  0
   -2.5981    1.5000    0.0000 Cl  0  0
   -1.2990   -0.7500    0.0000 C   0  0
   -2.5981   -1.5000    0.0000 F   0  0
    0.0000   -1.5000    0.0000 C   0  0
    1.2383   -5.8206    0.0000 C   0  0
  1  2  1  0
  2  3  2  0
  3  4  1  0
  4  5  1  0
  4  6  2  0
  6  7  1  0
  7  8  1  0
  8  9  2  0
  8 10  2  0
  8 11  1  0
 11 12  2  0
 12 13  1  0
 13 14  2  0
 13 15  1  0
 15 16  1  0
 16 17  1  0
 17 18  1  0
 18 19  1  0
 19 20  1  0
 20 21  1  0
 21 22  1  0
 22 18  1  0
 12 23  1  0
 23 24  1  0
 24 25  2  0
 25 26  1  0
 26 27  2  0
 27 28  1  0
 27 29  1  0
 29 30  1  0
 29 31  2  0
 31 11  1  0
 31 24  1  0
  7 32  2  0
 32  2  1  0
M  END
> <Smiles>
Cc1cc(C)cc(S(=O)(=O)c2c(C(=O)NCCN3CCCC3)[nH]c3ccc(Cl)c(F)c23)c1

> <IC50_uM>
0.158

> <pIC50>
6.801342913

> <Activity>
1

$$$$

  SciTegic10102310092D

 22 23  0  0  0  0            999 V2000
    8.3503   -2.7053    0.0000 C   0  0
    7.7450   -4.0777    0.0000 C   0  0
    8.6313   -5.2879    0.0000 C   0  0
    6.2556   -4.2405    0.0000 C   0  0
    5.2496   -3.1278    0.0000 S   0  0
    3.8995   -3.7516    0.0000 C   0  0
    2.5997   -3.0012    0.0000 N   0  0
    2.5988   -1.5004    0.0000 S   0  0
    3.8976   -0.7500    0.0000 O   0  0
    3.8982   -2.2498    0.0000 O   0  0
    1.2990   -0.7500    0.0000 C   0  0
    1.2990    0.7500    0.0000 C   0  0
    0.0000    1.5000    0.0000 C   0  0
    0.0000    3.0000    0.0000 Cl  0  0
   -1.2990    0.7500    0.0000 C   0  0
   -1.2990   -0.7500    0.0000 C   0  0
    0.0000   -1.5000    0.0000 C   0  0
    0.0000   -3.0000    0.0000 O   0  0
    4.0404   -5.2322    0.0000 N   0  0
    2.9218   -6.2315    0.0000 C   0  0
    5.5083   -5.5411    0.0000 C   0  0
    6.1212   -6.9101    0.0000 Cl  0  0
  1  2  1  0
  2  3  1  0
  2  4  1  0
  4  5  1  0
  5  6  1  0
  6  7  2  0
  7  8  1  0
  8  9  2  0
  8 10  2  0
  8 11  1  0
 11 12  2  0
 12 13  1  0
 13 14  1  0
 13 15  2  0
 15 16  1  0
 16 17  2  0
 17 11  1  0
 17 18  1  0
  6 19  1  0
 19 20  1  0
 19 21  1  0
 21  4  2  0
 21 22  1  0
M  END
> <Smiles>
CC(C)c1s/c(=N\S(=O)(=O)c2cc(Cl)ccc2O)n(C)c1Cl

> <IC50_uM>
0.15849

> <pIC50>
6.799998135

> <Activity>
1

$$$$

  SciTegic10102310092D

 38 41  0  0  0  0            999 V2000
    2.5981   -1.5000    0.0000 C   0  0
    1.2990   -0.7500    0.0000 C   0  0
    1.2990    0.7500    0.0000 C   0  0
    0.0000    1.5000    0.0000 C   0  0
   -0.0031    3.0008    0.0000 N   0  0
   -1.3039    3.7494    0.0000 C   0  0
   -1.3070    5.2502    0.0000 C   0  0
   -2.6078    5.9988    0.0000 C   0  0
   -2.6109    7.4996    0.0000 N   0  0
   -3.8245    8.3594    0.0000 C   0  0
   -3.3610    9.7860    0.0000 C   0  0
   -1.8610    9.7860    0.0000 N   0  0
   -1.3974    8.3594    0.0000 C   0  0
   -1.2990    0.7500    0.0000 C   0  0
   -1.2990   -0.7500    0.0000 C   0  0
    0.0000   -1.5000    0.0000 C   0  0
   -0.0031   -3.0008    0.0000 N   0  0
   -1.3039   -3.7494    0.0000 C   0  0
   -2.6016   -2.9971    0.0000 O   0  0
   -1.3070   -5.2502    0.0000 C   0  0
   -2.6078   -5.9988    0.0000 O   0  0
   -2.6109   -7.4996    0.0000 C   0  0
   -1.3118   -8.2497    0.0000 C   0  0
   -1.3119   -9.7497    0.0000 C   0  0
   -2.6109  -10.4997    0.0000 C   0  0
   -2.6110  -11.9997    0.0000 Cl  0  0
   -3.9100   -9.7497    0.0000 C   0  0
   -3.9099   -8.2497    0.0000 C   0  0
   -5.2112   -7.5019    0.0000 C   0  0
   -5.2139   -6.0019    0.0000 O   0  0
   -6.5099   -8.2542    0.0000 C   0  0
   -7.8116   -7.5088    0.0000 C   0  0
   -9.1080   -8.2633    0.0000 C   0  0
  -10.4097   -7.5178    0.0000 F   0  0
   -9.1028   -9.7633    0.0000 C   0  0
   -7.8012  -10.5088    0.0000 C   0  0
   -7.7960  -12.0088    0.0000 F   0  0
   -6.5048   -9.7543    0.0000 C   0  0
  1  2  1  0
  2  3  2  0
  3  4  1  0
  4  5  1  0
  5  6  1  0
  6  7  1  0
  7  8  1  0
  8  9  1  0
  9 10  1  0
 10 11  2  0
 11 12  1  0
 12 13  2  0
 13  9  1  0
  4 14  2  0
 14 15  1  0
 15 16  2  0
 16  2  1  0
 16 17  1  0
 17 18  1  0
 18 19  2  0
 18 20  1  0
 20 21  1  0
 21 22  1  0
 22 23  2  0
 23 24  1  0
 24 25  2  0
 25 26  1  0
 25 27  1  0
 27 28  2  0
 28 22  1  0
 28 29  1  0
 29 30  2  0
 29 31  1  0
 31 32  2  0
 32 33  1  0
 33 34  1  0
 33 35  2  0
 35 36  1  0
 36 37  1  0
 36 38  2  0
 38 31  1  0
M  END
> <Smiles>
Cc1cc(NCCCn2ccnc2)ccc1NC(=O)COc1ccc(Cl)cc1C(=O)c1cc(F)cc(F)c1

> <IC50_uM>
0.15849

> <pIC50>
6.799998135

> <Activity>
1

$$$$

  SciTegic10102310092D

 35 38  0  0  0  0            999 V2000
    2.5981   -1.5000    0.0000 C   0  0
    1.2990   -0.7500    0.0000 C   0  0
    1.2990    0.7500    0.0000 C   0  0
    0.0000    1.5000    0.0000 C   0  0
    0.0000    3.0008    0.0000 C   0  0
    0.0000    4.5008    0.0000 N   0  0
   -1.2990    0.7500    0.0000 C   0  0
   -1.2990   -0.7500    0.0000 C   0  0
   -2.5981   -1.5000    0.0000 C   0  0
    0.0000   -1.5000    0.0000 C   0  0
    0.0031   -3.0008    0.0000 O   0  0
    1.3039   -3.7494    0.0000 C   0  0
    2.6005   -2.9949    0.0000 N   0  0
    3.9021   -3.7404    0.0000 C   0  0
    5.2008   -2.9882    0.0000 N   0  0
    6.5021   -3.7360    0.0000 C   0  0
    7.8012   -2.9860    0.0000 C   0  0
    9.1002   -3.7360    0.0000 C   0  0
    9.1002   -5.2360    0.0000 N   0  0
   10.3984   -5.9891    0.0000 C   0  0
   10.3963   -7.4900    0.0000 C   0  0
    9.0946   -8.2356    0.0000 C   0  0
    9.0894   -9.7355    0.0000 C   0  0
   10.3859  -10.4900    0.0000 C   0  0
   10.3807  -11.9908    0.0000 C   0  0
   10.3755  -13.4908    0.0000 N   0  0
   11.6875   -9.7445    0.0000 C   0  0
   11.6927   -8.2445    0.0000 C   0  0
   12.9943   -7.4991    0.0000 Cl  0  0
    7.8012   -5.9860    0.0000 C   0  0
    6.5021   -5.2360    0.0000 C   0  0
    3.9073   -5.2404    0.0000 N   0  0
    2.6108   -5.9949    0.0000 C   0  0
    1.3092   -5.2494    0.0000 C   0  0
    0.0128   -6.0039    0.0000 Br  0  0
  1  2  1  0
  2  3  2  0
  3  4  1  0
  4  5  1  0
  5  6  3  0
  4  7  2  0
  7  8  1  0
  8  9  1  0
  8 10  2  0
 10  2  1  0
 10 11  1  0
 11 12  1  0
 12 13  2  0
 13 14  1  0
 14 15  1  0
 15 16  1  0
 16 17  1  0
 17 18  1  0
 18 19  1  0
 19 20  1  0
 20 21  1  0
 21 22  2  0
 22 23  1  0
 23 24  2  0
 24 25  1  0
 25 26  3  0
 24 27  1  0
 27 28  2  0
 28 21  1  0
 28 29  1  0
 19 30  1  0
 30 31  1  0
 31 16  1  0
 14 32  2  0
 32 33  1  0
 33 34  2  0
 34 12  1  0
 34 35  1  0
M  END
> <Smiles>
Cc1cc(C#N)cc(C)c1Oc1nc(NC2CCN(Cc3ccc(C#N)cc3Cl)CC2)ncc1Br

> <IC50_uM>
0.159

> <pIC50>
6.798602876

> <Activity>
1

$$$$

  SciTegic10102310092D

 35 38  0  0  0  0            999 V2000
    2.5981   -1.5000    0.0000 C   0  0
    1.2990   -0.7500    0.0000 C   0  0
    1.2990    0.7500    0.0000 C   0  0
    0.0000    1.5000    0.0000 C   0  0
    0.0000    3.0000    0.0000 C   0  0
   -1.2990    0.7500    0.0000 C   0  0
   -2.6003    1.4977    0.0000 O   0  0
   -3.8990    0.7455    0.0000 C   0  0
   -5.2007    1.4909    0.0000 C   0  0
   -6.4972    0.7364    0.0000 C   0  0
   -7.7988    1.4819    0.0000 Cl  0  0
   -6.4920   -0.7636    0.0000 N   0  0
   -5.1903   -1.5091    0.0000 C   0  0
   -5.1821   -3.0099    0.0000 N   0  0
   -3.8787   -3.7540    0.0000 C   0  0
   -3.8682   -5.2539    0.0000 C   0  0
   -2.5640   -5.9949    0.0000 C   0  0
   -1.2702   -5.2360    0.0000 N   0  0
    0.0363   -5.9747    0.0000 C   0  0
    1.3297   -5.2135    0.0000 C   0  0
    2.6365   -5.9499    0.0000 C   0  0
    3.9277   -5.1864    0.0000 C   0  0
    3.9122   -3.6865    0.0000 C   0  0
    5.2041   -2.9226    0.0000 S   0  0
    5.1880   -1.4227    0.0000 N   0  0
    6.5113   -3.6583    0.0000 O   0  0
    6.4949   -2.1586    0.0000 O   0  0
    2.6054   -2.9500    0.0000 C   0  0
    1.3142   -3.7135    0.0000 C   0  0
   -1.2805   -3.7360    0.0000 C   0  0
   -2.5847   -2.9950    0.0000 C   0  0
   -3.8939   -0.7546    0.0000 C   0  0
   -1.2990   -0.7500    0.0000 C   0  0
   -2.5981   -1.5000    0.0000 C   0  0
    0.0000   -1.5000    0.0000 C   0  0
  1  2  1  0
  2  3  2  0
  3  4  1  0
  4  5  1  0
  4  6  2  0
  6  7  1  0
  7  8  1  0
  8  9  2  0
  9 10  1  0
 10 11  1  0
 10 12  2  0
 12 13  1  0
 13 14  1  0
 14 15  1  0
 15 16  1  0
 16 17  1  0
 17 18  1  0
 18 19  1  0
 19 20  1  0
 20 21  2  0
 21 22  1  0
 22 23  2  0
 23 24  1  0
 24 25  1  0
 24 26  2  0
 24 27  2  0
 23 28  1  0
 28 29  2  0
 29 20  1  0
 18 30  1  0
 30 31  1  0
 31 15  1  0
 13 32  2  0
 32  8  1  0
  6 33  1  0
 33 34  1  0
 33 35  2  0
 35  2  1  0
M  END
> <Smiles>
Cc1cc(C)c(Oc2cc(Cl)nc(NC3CCN(Cc4ccc(S(N)(=O)=O)cc4)CC3)c2)c(C)c1

> <IC50_uM>
0.159

> <pIC50>
6.798602876

> <Activity>
1

$$$$

  SciTegic10102310092D

 29 31  0  0  0  0            999 V2000
    2.5951   -3.0031    0.0000 C   0  0
    2.5973   -1.5031    0.0000 C   0  0
    1.2990   -0.7500    0.0000 C   0  0
    1.2990    0.7500    0.0000 C   0  0
    2.5972    1.5031    0.0000 C   0  0
    3.8976    0.7554    0.0000 O   0  0
    2.5951    3.0039    0.0000 C   0  0
    3.8915    3.7585    0.0000 C   0  0
    3.8863    5.2585    0.0000 C   0  0
    5.1827    6.0130    0.0000 F   0  0
    2.5847    6.0040    0.0000 C   0  0
    1.2883    5.2495    0.0000 C   0  0
   -0.0134    5.9950    0.0000 F   0  0
    1.2934    3.7495    0.0000 C   0  0
    0.0000    1.5000    0.0000 N   0  0
   -1.2990    0.7500    0.0000 C   0  0
   -2.6003    1.4977    0.0000 S   0  0
   -3.8990    0.7455    0.0000 C   0  0
   -5.2003    1.4932    0.0000 C   0  0
   -6.4994    0.7432    0.0000 C   0  0
   -7.7985    1.4932    0.0000 C   0  0
   -7.7985    2.9932    0.0000 C   0  0
   -9.0967    3.7462    0.0000 O   0  0
   -9.0947    5.2462    0.0000 C   0  0
   -6.4995    3.7432    0.0000 C   0  0
   -5.2004    2.9933    0.0000 C   0  0
   -1.2990   -0.7500    0.0000 N   0  0
    0.0000   -1.5000    0.0000 C   0  0
    0.0000   -3.0000    0.0000 O   0  0
  1  2  1  0
  2  3  1  0
  3  4  2  0
  4  5  1  0
  5  6  2  0
  5  7  1  0
  7  8  2  0
  8  9  1  0
  9 10  1  0
  9 11  2  0
 11 12  1  0
 12 13  1  0
 12 14  2  0
 14  7  1  0
  4 15  1  0
 15 16  2  0
 16 17  1  0
 17 18  1  0
 18 19  1  0
 19 20  2  0
 20 21  1  0
 21 22  2  0
 22 23  1  0
 23 24  1  0
 22 25  1  0
 25 26  2  0
 26 19  1  0
 16 27  1  0
 27 28  1  0
 28  3  1  0
 28 29  2  0
M  END
> <Smiles>
CCc1c(C(=O)c2cc(F)cc(F)c2)nc(SCc2ccc(OC)cc2)[nH]c1=O

> <IC50_uM>
0.16

> <pIC50>
6.795880017

> <Activity>
1

$$$$

  SciTegic10102310092D

 32 35  0  0  0  0            999 V2000
    9.3131  -10.9084    0.0000 C   0  0
    8.5631   -9.6094    0.0000 C   0  0
    9.3130   -8.3103    0.0000 C   0  0
    8.5629   -7.0113    0.0000 C   0  0
    7.0629   -7.0113    0.0000 C   0  0
    6.3098   -5.7131    0.0000 N   0  0
    4.8090   -5.7153    0.0000 C   0  0
    4.0613   -7.0156    0.0000 O   0  0
    4.0559   -4.4171    0.0000 C   0  0
    2.5551   -4.4192    0.0000 S   0  0
    1.8032   -3.1233    0.0000 C   0  0
    2.4133   -1.7530    0.0000 N   0  0
    1.2990   -0.7500    0.0000 C   0  0
    1.2990    0.7500    0.0000 C   0  0
    0.0000    1.5000    0.0000 C   0  0
   -1.2990    0.7500    0.0000 C   0  0
   -1.2990   -0.7500    0.0000 C   0  0
    0.0000   -1.5000    0.0000 C   0  0
    0.3114   -2.9665    0.0000 N   0  0
   -0.6913   -4.0797    0.0000 S   0  0
   -0.2276   -5.5062    0.0000 O   0  0
    0.7759   -4.3916    0.0000 O   0  0
   -2.1595   -3.7683    0.0000 C   0  0
   -3.1627   -4.8835    0.0000 C   0  0
   -4.6300   -4.5722    0.0000 C   0  0
   -5.6332   -5.6874    0.0000 C   0  0
   -5.0942   -3.1458    0.0000 C   0  0
   -4.0910   -2.0307    0.0000 C   0  0
   -4.5551   -0.6043    0.0000 C   0  0
   -2.6236   -2.3419    0.0000 C   0  0
    6.3130   -8.3105    0.0000 C   0  0
    7.0631   -9.6095    0.0000 C   0  0
  1  2  1  0
  2  3  2  0
  3  4  1  0
  4  5  2  0
  5  6  1  0
  6  7  1  0
  7  8  2  0
  7  9  1  0
  9 10  1  0
 10 11  1  0
 11 12  2  0
 12 13  1  0
 13 14  2  0
 14 15  1  0
 15 16  2  0
 16 17  1  0
 17 18  2  0
 18 13  1  0
 18 19  1  0
 19 11  1  0
 19 20  1  0
 20 21  2  0
 20 22  2  0
 20 23  1  0
 23 24  2  0
 24 25  1  0
 25 26  1  0
 25 27  2  0
 27 28  1  0
 28 29  1  0
 28 30  2  0
 30 23  1  0
  5 31  1  0
 31 32  2  0
 32  2  1  0
M  END
> <Smiles>
Cc1ccc(NC(=O)CSc2nc3ccccc3n2S(=O)(=O)c2cc(C)cc(C)c2)cc1

> <IC50_uM>
0.16

> <pIC50>
6.795880017

> <Activity>
1

$$$$

  SciTegic10102310092D

 40 44  0  0  0  0            999 V2000
    2.5923    1.5001    0.0000 C   0  0
    3.8939    0.7546    0.0000 C   0  0
    5.1903    1.5091    0.0000 C   0  0
    6.4920    0.7636    0.0000 C   0  0
    7.7907    1.5158    0.0000 C   0  0
    9.0920    0.7680    0.0000 C   0  0
   10.3907    1.5203    0.0000 C   0  0
   11.6886    2.2721    0.0000 N   0  0
    6.4972   -0.7364    0.0000 C   0  0
    5.2007   -1.4909    0.0000 C   0  0
    5.2059   -2.9909    0.0000 C   0  0
    3.8990   -0.7455    0.0000 C   0  0
    2.6003   -1.4977    0.0000 N   0  0
    1.2990   -0.7500    0.0000 C   0  0
    1.2990    0.7500    0.0000 N   0  0
    0.0000    1.5000    0.0000 C   0  0
   -0.0031    3.0008    0.0000 N   0  0
   -1.3039    3.7494    0.0000 C   0  0
   -1.3092    5.2494    0.0000 C   0  0
   -2.6108    5.9949    0.0000 C   0  0
   -3.9073    5.2404    0.0000 N   0  0
   -5.2112    5.9836    0.0000 C   0  0
   -6.5072    5.2269    0.0000 C   0  0
   -7.8115    5.9678    0.0000 C   0  0
   -9.1053    5.2088    0.0000 C   0  0
   -9.0949    3.7089    0.0000 C   0  0
  -10.3895    2.9495    0.0000 S   0  0
  -10.3786    1.4495    0.0000 N   0  0
  -11.6941    3.6896    0.0000 O   0  0
  -11.6829    2.1899    0.0000 O   0  0
   -7.7907    2.9679    0.0000 C   0  0
   -6.4969    3.7269    0.0000 C   0  0
   -3.9021    3.7404    0.0000 C   0  0
   -2.6005    2.9949    0.0000 C   0  0
   -1.2990    0.7500    0.0000 N   0  0
   -1.2990   -0.7500    0.0000 C   0  0
   -2.4133   -1.7530    0.0000 C   0  0
   -1.8032   -3.1233    0.0000 C   0  0
   -0.3114   -2.9665    0.0000 S   0  0
    0.0000   -1.5000    0.0000 C   0  0
  1  2  1  0
  2  3  2  0
  3  4  1  0
  4  5  1  0
  5  6  2  0
  6  7  1  0
  7  8  3  0
  4  9  2  0
  9 10  1  0
 10 11  1  0
 10 12  2  0
 12  2  1  0
 12 13  1  0
 13 14  1  0
 14 15  2  0
 15 16  1  0
 16 17  1  0
 17 18  1  0
 18 19  1  0
 19 20  1  0
 20 21  1  0
 21 22  1  0
 22 23  1  0
 23 24  2  0
 24 25  1  0
 25 26  2  0
 26 27  1  0
 27 28  1  0
 27 29  2  0
 27 30  2  0
 26 31  1  0
 31 32  2  0
 32 23  1  0
 21 33  1  0
 33 34  1  0
 34 18  1  0
 16 35  2  0
 35 36  1  0
 36 37  1  0
 37 38  2  0
 38 39  1  0
 39 40  1  0
 40 14  1  0
 40 36  2  0
M  END
> <Smiles>
Cc1cc(/C=C/C#N)cc(C)c1Nc1nc(NC2CCN(Cc3ccc(S(N)(=O)=O)cc3)CC2)nc2ccsc12

> <IC50_uM>
0.16

> <pIC50>
6.795880017

> <Activity>
1

$$$$

  SciTegic10102310092D

 35 38  0  0  0  0            999 V2000
    2.5981   -1.5000    0.0000 C   0  0
    1.2990   -0.7500    0.0000 C   0  0
    1.2990    0.7500    0.0000 C   0  0
    0.0000    1.5000    0.0000 C   0  0
    0.0000    3.0000    0.0000 C   0  0
   -1.2990    0.7500    0.0000 C   0  0
   -2.6003    1.4977    0.0000 O   0  0
   -3.8990    0.7455    0.0000 C   0  0
   -5.2007    1.4909    0.0000 C   0  0
   -6.4972    0.7364    0.0000 C   0  0
   -7.7988    1.4819    0.0000 Cl  0  0
   -6.4920   -0.7636    0.0000 N   0  0
   -5.1903   -1.5091    0.0000 C   0  0
   -5.1821   -3.0099    0.0000 N   0  0
   -3.8787   -3.7540    0.0000 C   0  0
   -3.8682   -5.2539    0.0000 C   0  0
   -2.5640   -5.9949    0.0000 C   0  0
   -1.2702   -5.2360    0.0000 N   0  0
    0.0363   -5.9747    0.0000 C   0  0
    1.3297   -5.2135    0.0000 C   0  0
    2.6365   -5.9499    0.0000 C   0  0
    3.9277   -5.1864    0.0000 C   0  0
    3.9122   -3.6865    0.0000 C   0  0
    5.2041   -2.9226    0.0000 S   0  0
    5.1880   -1.4227    0.0000 C   0  0
    6.5113   -3.6583    0.0000 O   0  0
    6.4949   -2.1586    0.0000 O   0  0
    2.6054   -2.9500    0.0000 C   0  0
    1.3142   -3.7135    0.0000 C   0  0
   -1.2805   -3.7360    0.0000 C   0  0
   -2.5847   -2.9950    0.0000 C   0  0
   -3.8939   -0.7546    0.0000 C   0  0
   -1.2990   -0.7500    0.0000 C   0  0
   -2.5981   -1.5000    0.0000 C   0  0
    0.0000   -1.5000    0.0000 C   0  0
  1  2  1  0
  2  3  2  0
  3  4  1  0
  4  5  1  0
  4  6  2  0
  6  7  1  0
  7  8  1  0
  8  9  2  0
  9 10  1  0
 10 11  1  0
 10 12  2  0
 12 13  1  0
 13 14  1  0
 14 15  1  0
 15 16  1  0
 16 17  1  0
 17 18  1  0
 18 19  1  0
 19 20  1  0
 20 21  2  0
 21 22  1  0
 22 23  2  0
 23 24  1  0
 24 25  1  0
 24 26  2  0
 24 27  2  0
 23 28  1  0
 28 29  2  0
 29 20  1  0
 18 30  1  0
 30 31  1  0
 31 15  1  0
 13 32  2  0
 32  8  1  0
  6 33  1  0
 33 34  1  0
 33 35  2  0
 35  2  1  0
M  END
> <Smiles>
Cc1cc(C)c(Oc2cc(Cl)nc(NC3CCN(Cc4ccc(S(C)(=O)=O)cc4)CC3)c2)c(C)c1

> <IC50_uM>
0.16

> <pIC50>
6.795880017

> <Activity>
1

$$$$

  SciTegic10102310092D

 25 27  0  0  0  0            999 V2000
    2.5981   -1.5000    0.0000 C   0  0
    1.2990   -0.7500    0.0000 C   0  0
    1.2990    0.7500    0.0000 C   0  0
    0.0000    1.5000    0.0000 C   0  0
   -1.2990    0.7500    0.0000 C   0  0
   -2.5988    1.5004    0.0000 C   0  0  3  0  0  0
   -3.8976    0.7500    0.0000 C   0  0
   -2.5986    0.0004    0.0000 O   0  0
   -2.5998    3.0012    0.0000 C   0  0
   -3.8993    3.7504    0.0000 C   0  0
   -3.9002    5.2504    0.0000 C   0  0
   -2.6017    6.0012    0.0000 N   0  0
   -1.3022    5.2521    0.0000 C   0  0
   -0.0013    6.0006    0.0000 N   0  0
    1.2978    5.2492    0.0000 C   0  0
    2.5991    5.9955    0.0000 C   0  0
    3.8960    5.2418    0.0000 C   0  0
    3.8917    3.7418    0.0000 C   0  0
    5.1894    2.9877    0.0000 C   0  0
    6.4863    2.2341    0.0000 N   0  0
    2.5906    2.9955    0.0000 C   0  0
    1.2937    3.7491    0.0000 C   0  0
   -1.3012    3.7521    0.0000 N   0  0
   -1.2990   -0.7500    0.0000 C   0  0
    0.0000   -1.5000    0.0000 C   0  0
  1  2  1  0
  2  3  2  0
  3  4  1  0
  4  5  2  0
  5  6  1  0
  6  7  1  4
  6  8  1  0
  6  9  1  0
  9 10  2  0
 10 11  1  0
 11 12  2  0
 12 13  1  0
 13 14  1  0
 14 15  1  0
 15 16  2  0
 16 17  1  0
 17 18  2  0
 18 19  1  0
 19 20  3  0
 18 21  1  0
 21 22  2  0
 22 15  1  0
 13 23  2  0
 23  9  1  0
  5 24  1  0
 24 25  2  0
 25  2  1  0
M  END
> <Smiles>
Cc1ccc(C(C)(O)c2ccnc(Nc3ccc(C#N)cc3)n2)cc1

> <IC50_uM>
0.16

> <pIC50>
6.795880017

> <Activity>
1

$$$$

  SciTegic10102310092D

 28 30  0  0  0  0            999 V2000
    3.1676   -7.5606    0.0000 C   0  0
    1.7006   -7.2475    0.0000 C   0  0
    0.6960   -8.3614    0.0000 C   0  0
   -0.7710   -8.0483    0.0000 C   0  0
   -1.7756   -9.1622    0.0000 C   0  0
   -1.2333   -6.6213    0.0000 C   0  0
   -0.2287   -5.5075    0.0000 C   0  0
   -0.6913   -4.0797    0.0000 S   0  0
   -2.1584   -3.7671    0.0000 O   0  0
   -1.6957   -5.1937    0.0000 O   0  0
    0.3114   -2.9665    0.0000 C   0  0
    1.8032   -3.1233    0.0000 C   0  0
    2.5551   -4.4192    0.0000 C   0  0
    1.8074   -5.7196    0.0000 O   0  0
    4.0559   -4.4171    0.0000 N   0  0
    4.8090   -5.7153    0.0000 C   0  0
    6.3098   -5.7131    0.0000 C   0  0
    7.0575   -4.4127    0.0000 N   0  0
    7.0625   -7.0106    0.0000 O   0  0
    2.4133   -1.7530    0.0000 N   0  0
    1.2990   -0.7500    0.0000 C   0  0
    1.2990    0.7500    0.0000 C   0  0
    0.0000    1.5000    0.0000 C   0  0
   -1.2990    0.7500    0.0000 C   0  0
   -2.5981    1.5000    0.0000 Cl  0  0
   -1.2990   -0.7500    0.0000 C   0  0
    0.0000   -1.5000    0.0000 C   0  0
    1.2383   -5.8206    0.0000 C   0  0
  1  2  1  0
  2  3  2  0
  3  4  1  0
  4  5  1  0
  4  6  2  0
  6  7  1  0
  7  8  1  0
  8  9  2  0
  8 10  2  0
  8 11  1  0
 11 12  2  0
 12 13  1  0
 13 14  2  0
 13 15  1  0
 15 16  1  0
 16 17  1  0
 17 18  1  0
 17 19  2  0
 12 20  1  0
 20 21  1  0
 21 22  2  0
 22 23  1  0
 23 24  2  0
 24 25  1  0
 24 26  1  0
 26 27  2  0
 27 11  1  0
 27 21  1  0
  7 28  2  0
 28  2  1  0
M  END
> <Smiles>
Cc1cc(C)cc(S(=O)(=O)c2c(C(=O)NCC(N)=O)[nH]c3ccc(Cl)cc23)c1

> <IC50_uM>
0.161

> <pIC50>
6.793174124

> <Activity>
1

$$$$

  SciTegic10102310092D

 32 35  0  0  0  0            999 V2000
    3.1676   -7.5606    0.0000 C   0  0
    1.7006   -7.2475    0.0000 C   0  0
    0.6960   -8.3614    0.0000 C   0  0
   -0.7710   -8.0483    0.0000 C   0  0
   -1.7756   -9.1622    0.0000 C   0  0
   -1.2333   -6.6213    0.0000 C   0  0
   -0.2287   -5.5075    0.0000 C   0  0
   -0.6913   -4.0797    0.0000 S   0  0
   -2.1584   -3.7671    0.0000 O   0  0
   -1.6957   -5.1937    0.0000 O   0  0
    0.3114   -2.9665    0.0000 C   0  0
    1.8032   -3.1233    0.0000 C   0  0
    2.5551   -4.4192    0.0000 C   0  0
    1.8074   -5.7196    0.0000 O   0  0
    4.0559   -4.4171    0.0000 N   0  0
    4.8090   -5.7153    0.0000 C   0  0
    6.3098   -5.7131    0.0000 C   0  0
    7.0629   -7.0113    0.0000 C   0  0
    8.5630   -7.0113    0.0000 C   0  0
    9.3130   -8.3103    0.0000 C   0  0
    8.5631   -9.6094    0.0000 C   0  0
    7.0631   -9.6094    0.0000 N   0  0
    6.3130   -8.3104    0.0000 C   0  0
    2.4133   -1.7530    0.0000 N   0  0
    1.2990   -0.7500    0.0000 C   0  0
    1.2990    0.7500    0.0000 C   0  0
    0.0000    1.5000    0.0000 C   0  0
   -1.2990    0.7500    0.0000 C   0  0
   -2.5981    1.5000    0.0000 Cl  0  0
   -1.2990   -0.7500    0.0000 C   0  0
    0.0000   -1.5000    0.0000 C   0  0
    1.2383   -5.8206    0.0000 C   0  0
  1  2  1  0
  2  3  2  0
  3  4  1  0
  4  5  1  0
  4  6  2  0
  6  7  1  0
  7  8  1  0
  8  9  2  0
  8 10  2  0
  8 11  1  0
 11 12  2  0
 12 13  1  0
 13 14  2  0
 13 15  1  0
 15 16  1  0
 16 17  1  0
 17 18  1  0
 18 19  2  0
 19 20  1  0
 20 21  2  0
 21 22  1  0
 22 23  2  0
 23 18  1  0
 12 24  1  0
 24 25  1  0
 25 26  2  0
 26 27  1  0
 27 28  2  0
 28 29  1  0
 28 30  1  0
 30 31  2  0
 31 11  1  0
 31 25  1  0
  7 32  2  0
 32  2  1  0
M  END
> <Smiles>
Cc1cc(C)cc(S(=O)(=O)c2c(C(=O)NCCc3cccnc3)[nH]c3ccc(Cl)cc23)c1

> <IC50_uM>
0.162

> <pIC50>
6.790484985

> <Activity>
1

$$$$

  SciTegic10102310092D

 16 17  0  0  0  0            999 V2000
    1.6852   -0.3846    0.0000 C   0  0
    1.3514    1.0778    0.0000 N   0  0
    0.0000    1.7286    0.0000 C   0  0
   -1.3515    1.0777    0.0000 C   0  0
   -1.6852   -0.3847    0.0000 C   0  0
   -0.7500   -1.5574    0.0000 C   0  0  3  0  0  0
   -2.2238   -1.6217    0.0000 C   0  0
   -2.8744   -2.9733    0.0000 O   0  0
   -3.0693   -0.3828    0.0000 O   0  0
    0.1187   -2.7501    0.0000 C   0  0
   -0.4898   -4.1212    0.0000 C   0  0
    0.3933   -5.3337    0.0000 C   0  0
    1.8849   -5.1751    0.0000 C   0  0
    2.4934   -3.8041    0.0000 C   0  0
    1.6103   -2.5916    0.0000 C   0  0
    0.7500   -1.5574    0.0000 C   0  0
  1  2  1  0
  2  3  1  0
  3  4  1  0
  4  5  1  0
  5  6  1  0
  6  7  1  4
  7  8  1  0
  7  9  2  0
  6 10  1  0
 10 11  2  0
 11 12  1  0
 12 13  2  0
 13 14  1  0
 14 15  2  0
 15 10  1  0
  6 16  1  0
 16  1  1  0
M  END
> <Smiles>
C1NCCCC(C(O)=O)(c2ccccc2)C1

> <IC50_uM>
0.16218101

> <pIC50>
6.789999999

> <Activity>
1

$$$$

  SciTegic10102310092D

 16 16  0  0  0  0            999 V2000
    1.2990   -0.7500    0.0000 C   0  0
    1.2990    0.7500    0.0000 C   0  0
    2.5981    1.5000    0.0000 C   0  0
    0.0000    1.5000    0.0000 C   0  0
   -1.2990    0.7500    0.0000 C   0  0
   -1.2990   -0.7500    0.0000 C   0  0
   -2.5972   -1.5031    0.0000 C   0  0
   -2.5951   -3.0039    0.0000 C   0  0
   -3.8933   -3.7570    0.0000 C   0  0
   -3.8912   -5.2578    0.0000 N   0  0
   -5.1894   -6.0109    0.0000 C   0  0
   -5.1872   -7.5109    0.0000 C   0  0
   -2.5916   -6.0087    0.0000 C   0  0
   -2.5912   -7.5087    0.0000 C   0  0
   -3.8976   -0.7554    0.0000 O   0  0
    0.0000   -1.5000    0.0000 C   0  0
  1  2  2  0
  2  3  1  0
  2  4  1  0
  4  5  2  0
  5  6  1  0
  6  7  1  0
  7  8  1  0
  8  9  1  0
  9 10  1  0
 10 11  1  0
 11 12  1  0
 10 13  1  0
 13 14  1  0
  7 15  2  0
  6 16  2  0
 16  1  1  0
M  END
> <Smiles>
c1c(C)ccc(C(CCN(CC)CC)=O)c1

> <IC50_uM>
0.16218101

> <pIC50>
6.789999999

> <Activity>
1

$$$$

  SciTegic10102310092D

 47 52  0  0  0  0            999 V2000
    2.5923    1.5001    0.0000 C   0  0
    3.8939    0.7546    0.0000 C   0  0
    5.1903    1.5091    0.0000 C   0  0
    6.4920    0.7636    0.0000 C   0  0
    7.7891    1.5185    0.0000 C   0  0
    9.0856    2.2729    0.0000 N   0  0
    6.4972   -0.7364    0.0000 C   0  0
    5.2007   -1.4909    0.0000 C   0  0
    5.2059   -2.9909    0.0000 C   0  0
    3.8990   -0.7455    0.0000 C   0  0
    2.6003   -1.4977    0.0000 O   0  0
    1.2990   -0.7500    0.0000 C   0  0
    1.2990    0.7500    0.0000 N   0  0
    0.0000    1.5000    0.0000 C   0  0
   -0.0031    3.0008    0.0000 N   0  0
   -1.3039    3.7494    0.0000 C   0  0
   -1.3092    5.2494    0.0000 C   0  0
   -2.6108    5.9949    0.0000 C   0  0
   -3.9073    5.2404    0.0000 N   0  0
   -5.2112    5.9836    0.0000 C   0  0
   -6.5072    5.2269    0.0000 C   0  0
   -7.8115    5.9678    0.0000 C   0  0
   -9.1053    5.2088    0.0000 C   0  0
   -9.0949    3.7089    0.0000 C   0  0
  -10.3895    2.9495    0.0000 S   0  0
  -10.3786    1.4495    0.0000 N   0  0
  -11.6941    3.6896    0.0000 O   0  0
  -11.6829    2.1899    0.0000 O   0  0
   -7.7907    2.9679    0.0000 C   0  0
   -6.4969    3.7269    0.0000 C   0  0
   -3.9021    3.7404    0.0000 C   0  0
   -2.6005    2.9949    0.0000 C   0  0
   -1.2990    0.7500    0.0000 N   0  0
   -1.2990   -0.7500    0.0000 C   0  0
   -2.4133   -1.7530    0.0000 C   0  0
   -1.8032   -3.1233    0.0000 C   0  0
   -0.3114   -2.9665    0.0000 N   0  0
    0.6890   -4.0818    0.0000 C   0  0
    0.2235   -5.5086    0.0000 O   0  0
    1.2256   -6.6258    0.0000 C   0  0
    0.7601   -8.0526    0.0000 C   0  0
    1.7601   -9.1707    0.0000 C   0  0
    1.2919  -10.5957    0.0000 C   0  0
   -0.1764  -10.9028    0.0000 C   0  0
   -1.1764   -9.7848    0.0000 C   0  0
   -0.7082   -8.3597    0.0000 C   0  0
    0.0000   -1.5000    0.0000 C   0  0
  1  2  1  0
  2  3  2  0
  3  4  1  0
  4  5  1  0
  5  6  3  0
  4  7  2  0
  7  8  1  0
  8  9  1  0
  8 10  2  0
 10  2  1  0
 10 11  1  0
 11 12  1  0
 12 13  2  0
 13 14  1  0
 14 15  1  0
 15 16  1  0
 16 17  1  0
 17 18  1  0
 18 19  1  0
 19 20  1  0
 20 21  1  0
 21 22  2  0
 22 23  1  0
 23 24  2  0
 24 25  1  0
 25 26  1  0
 25 27  2  0
 25 28  2  0
 24 29  1  0
 29 30  2  0
 30 21  1  0
 19 31  1  0
 31 32  1  0
 32 16  1  0
 14 33  2  0
 33 34  1  0
 34 35  1  0
 35 36  2  0
 36 37  1  0
 37 38  1  0
 38 39  1  0
 39 40  1  0
 40 41  1  0
 41 42  2  0
 42 43  1  0
 43 44  2  0
 44 45  1  0
 45 46  2  0
 46 41  1  0
 37 47  1  0
 47 12  1  0
 47 34  2  0
M  END
> <Smiles>
Cc1cc(C#N)cc(C)c1Oc1nc(NC2CCN(Cc3ccc(S(N)(=O)=O)cc3)CC2)nc2ccn(COCc3ccccc3)c12

> <IC50_uM>
0.163

> <pIC50>
6.787812396

> <Activity>
1

$$$$

  SciTegic10102310092D

 18 17  0  0  0  0            999 V2000
    0.0007    0.0004    0.0000 N   0  0
    1.3000    0.7500    0.0000 C   0  0
    2.6000    0.0000    0.0000 C   0  0
    3.9000    0.7500    0.0000 C   0  0
    5.2000    0.0000    0.0000 N   0  0
    6.5000    0.7500    0.0000 C   0  0
    7.7999    0.0000    0.0000 C   0  0
    9.0999    0.7500    0.0000 C   0  0
   10.3999    0.0000    0.0000 C   0  0
   11.6999    0.7500    0.0000 N   0  0
   12.9999    0.0000    0.0000 C   0  0
   14.2999    0.7500    0.0000 C   0  0
   15.5999    0.0000    0.0000 C   0  0
   16.8992    0.7496    0.0000 N   0  0
    5.2030   -1.5008    0.0000 N   0  3
    6.5039   -2.2494    0.0000 N   0  5
    6.5070   -3.7494    0.0000 O   0  0
    3.9053   -2.2531    0.0000 O   0  0
  1  2  1  0
  2  3  1  0
  3  4  1  0
  4  5  1  0
  5  6  1  0
  6  7  1  0
  7  8  1  0
  8  9  1  0
  9 10  1  0
 10 11  1  0
 11 12  1  0
 12 13  1  0
 13 14  1  0
  5 15  1  0
 15 16  1  0
 16 17  1  0
 15 18  2  0
M  CHG  2  15   1  16  -1
M  END
> <Smiles>
NCCCN(CCCCNCCCN)[N+]([N-]O)=O

> <IC50_uM>
0.165958691

> <pIC50>
6.779999999

> <Activity>
1

$$$$

  SciTegic10102310092D

 32 35  0  0  0  0            999 V2000
    2.5981   -1.5000    0.0000 C   0  0
    1.2990   -0.7500    0.0000 C   0  0
    1.2990    0.7500    0.0000 C   0  0
    0.0000    1.5000    0.0000 C   0  0
    0.0000    3.0008    0.0000 C   0  0
    0.0000    4.5008    0.0000 N   0  0
   -1.2990    0.7500    0.0000 C   0  0
   -1.2990   -0.7500    0.0000 C   0  0
   -2.5981   -1.5000    0.0000 C   0  0
    0.0000   -1.5000    0.0000 C   0  0
    0.0031   -3.0008    0.0000 O   0  0
    1.3039   -3.7494    0.0000 C   0  0
    1.3092   -5.2494    0.0000 C   0  0
    2.6108   -5.9949    0.0000 C   0  0
    2.6160   -7.4949    0.0000 Cl  0  0
    3.9073   -5.2404    0.0000 N   0  0
    3.9021   -3.7404    0.0000 C   0  0
    5.1977   -2.9829    0.0000 N   0  0
    5.1903   -1.4820    0.0000 C   0  0
    6.4841   -0.7230    0.0000 C   0  0
    6.4738    0.7770    0.0000 C   0  0
    5.1696    1.5180    0.0000 N   0  0
    5.1561    3.0188    0.0000 C   0  0
    3.8501    3.7583    0.0000 C   0  0
    3.8345    5.2582    0.0000 C   0  0
    2.5277    5.9947    0.0000 C   0  0
    1.2365    5.2313    0.0000 C   0  0
    1.2521    3.7314    0.0000 C   0  0
    2.5588    2.9949    0.0000 C   0  0
    3.8757    0.7590    0.0000 C   0  0
    3.8861   -0.7410    0.0000 C   0  0
    2.6004   -2.9949    0.0000 C   0  0
  1  2  1  0
  2  3  2  0
  3  4  1  0
  4  5  1  0
  5  6  3  0
  4  7  2  0
  7  8  1  0
  8  9  1  0
  8 10  2  0
 10  2  1  0
 10 11  1  0
 11 12  1  0
 12 13  2  0
 13 14  1  0
 14 15  1  0
 14 16  2  0
 16 17  1  0
 17 18  1  0
 18 19  1  0
 19 20  1  0
 20 21  1  0
 21 22  1  0
 22 23  1  0
 23 24  1  0
 24 25  2  0
 25 26  1  0
 26 27  2  0
 27 28  1  0
 28 29  2  0
 29 24  1  0
 22 30  1  0
 30 31  1  0
 31 19  1  0
 17 32  2  0
 32 12  1  0
M  END
> <Smiles>
Cc1cc(C#N)cc(C)c1Oc1cc(Cl)nc(NC2CCN(Cc3ccccc3)CC2)c1

> <IC50_uM>
0.168

> <pIC50>
6.774690718

> <Activity>
1

$$$$

  SciTegic10102310092D

 37 41  0  0  0  0            999 V2000
    2.5923    1.5001    0.0000 C   0  0
    3.8939    0.7546    0.0000 C   0  0
    5.1903    1.5091    0.0000 C   0  0
    6.4920    0.7636    0.0000 C   0  0
    7.7907    1.5158    0.0000 C   0  0
    9.0920    0.7680    0.0000 C   0  0
   10.3907    1.5203    0.0000 C   0  0
   11.6886    2.2721    0.0000 N   0  0
    6.4972   -0.7364    0.0000 C   0  0
    5.2007   -1.4909    0.0000 C   0  0
    5.2059   -2.9909    0.0000 C   0  0
    3.8990   -0.7455    0.0000 C   0  0
    2.6003   -1.4977    0.0000 O   0  0
    1.2990   -0.7500    0.0000 C   0  0
    1.2990    0.7500    0.0000 N   0  0
    0.0000    1.5000    0.0000 C   0  0
   -0.0031    3.0008    0.0000 N   0  0
   -1.3039    3.7494    0.0000 C   0  0
   -1.3092    5.2494    0.0000 C   0  0
   -2.6108    5.9949    0.0000 C   0  0
   -3.9073    5.2404    0.0000 N   0  0
   -5.2112    5.9836    0.0000 C   0  0
   -6.5072    5.2269    0.0000 C   0  0
   -7.8115    5.9678    0.0000 C   0  0
   -9.1053    5.2088    0.0000 C   0  0
   -9.0949    3.7089    0.0000 C   0  0
   -7.7907    2.9679    0.0000 C   0  0
   -7.7803    1.4679    0.0000 Cl  0  0
   -6.4969    3.7269    0.0000 C   0  0
   -3.9021    3.7404    0.0000 C   0  0
   -2.6005    2.9949    0.0000 C   0  0
   -1.2990    0.7500    0.0000 N   0  0
   -1.2990   -0.7500    0.0000 C   0  0
   -2.4133   -1.7530    0.0000 C   0  0
   -1.8032   -3.1233    0.0000 C   0  0
   -0.3114   -2.9665    0.0000 S   0  0
    0.0000   -1.5000    0.0000 C   0  0
  1  2  1  0
  2  3  2  0
  3  4  1  0
  4  5  1  0
  5  6  2  0
  6  7  1  0
  7  8  3  0
  4  9  2  0
  9 10  1  0
 10 11  1  0
 10 12  2  0
 12  2  1  0
 12 13  1  0
 13 14  1  0
 14 15  2  0
 15 16  1  0
 16 17  1  0
 17 18  1  0
 18 19  1  0
 19 20  1  0
 20 21  1  0
 21 22  1  0
 22 23  1  0
 23 24  2  0
 24 25  1  0
 25 26  2  0
 26 27  1  0
 27 28  1  0
 27 29  2  0
 29 23  1  0
 21 30  1  0
 30 31  1  0
 31 18  1  0
 16 32  2  0
 32 33  1  0
 33 34  1  0
 34 35  2  0
 35 36  1  0
 36 37  1  0
 37 14  1  0
 37 33  2  0
M  END
> <Smiles>
Cc1cc(/C=C/C#N)cc(C)c1Oc1nc(NC2CCN(Cc3cccc(Cl)c3)CC2)nc2ccsc12

> <IC50_uM>
0.17

> <pIC50>
6.769551079

> <Activity>
1

$$$$

  SciTegic10102310092D

 29 31  0  0  0  0            999 V2000
    2.5951   -3.0031    0.0000 C   0  0
    2.5973   -1.5031    0.0000 O   0  0
    1.2990   -0.7500    0.0000 C   0  0
    1.2990    0.7500    0.0000 C   0  0
    0.0000    1.5000    0.0000 C   0  0
   -1.2990    0.7500    0.0000 C   0  0
   -2.6003    1.4977    0.0000 C   0  0
   -3.8990    0.7455    0.0000 S   0  0
   -5.2003    1.4932    0.0000 C   0  0
   -6.4994    0.7432    0.0000 N   0  0
   -7.7985    1.4932    0.0000 C   0  0
   -9.0967    0.7401    0.0000 C   0  0  3  0  0  0
  -10.3977    1.4882    0.0000 C   0  0
  -11.6981    2.2359    0.0000 N   0  0
   -9.0945   -0.7608    0.0000 C   0  0
  -10.3909   -1.5154    0.0000 C   0  0
  -11.6926   -0.7699    0.0000 F   0  0
  -10.3857   -3.0154    0.0000 C   0  0
   -9.0840   -3.7608    0.0000 C   0  0
   -7.7876   -3.0063    0.0000 C   0  0
   -7.7928   -1.5063    0.0000 C   0  0
   -6.4964   -0.7518    0.0000 Cl  0  0
   -7.7985    2.9932    0.0000 C   0  0
   -9.0976    3.7432    0.0000 C   0  0
   -6.4995    3.7432    0.0000 C   0  0
   -6.4995    5.2432    0.0000 O   0  0
   -5.2004    2.9933    0.0000 N   0  0
   -1.2990   -0.7500    0.0000 C   0  0
    0.0000   -1.5000    0.0000 C   0  0
  1  2  1  0
  2  3  1  0
  3  4  2  0
  4  5  1  0
  5  6  2  0
  6  7  1  0
  7  8  1  0
  8  9  1  0
  9 10  2  0
 10 11  1  0
 11 12  1  0
 12 13  1  4
 13 14  3  0
 12 15  1  0
 15 16  2  0
 16 17  1  0
 16 18  1  0
 18 19  2  0
 19 20  1  0
 20 21  2  0
 21 15  1  0
 21 22  1  0
 11 23  2  0
 23 24  1  0
 23 25  1  0
 25 26  2  0
 25 27  1  0
 27  9  1  0
  6 28  1  0
 28 29  2  0
 29  3  1  0
M  END
> <Smiles>
COc1ccc(CSc2nc(C(C#N)c3c(F)cccc3Cl)c(C)c(=O)[nH]2)cc1

> <IC50_uM>
0.17

> <pIC50>
6.769551079

> <Activity>
1

$$$$

  SciTegic10102310092D

 35 38  0  0  0  0            999 V2000
    9.3060  -13.5099    0.0000 C   0  0
    8.5586  -12.2094    0.0000 O   0  0
    9.3109  -10.9107    0.0000 C   0  0
   10.8108  -10.9132    0.0000 O   0  0
    8.5631   -9.6094    0.0000 C   0  0
    9.3130   -8.3103    0.0000 C   0  0
    8.5629   -7.0113    0.0000 C   0  0
    7.0629   -7.0113    0.0000 C   0  0
    6.3098   -5.7131    0.0000 N   0  0
    4.8090   -5.7153    0.0000 C   0  0
    4.0613   -7.0156    0.0000 O   0  0
    4.0559   -4.4171    0.0000 C   0  0
    2.5551   -4.4192    0.0000 S   0  0
    1.8032   -3.1233    0.0000 C   0  0
    2.4133   -1.7530    0.0000 N   0  0
    1.2990   -0.7500    0.0000 C   0  0
    1.2990    0.7500    0.0000 C   0  0
    0.0000    1.5000    0.0000 C   0  0
   -1.2990    0.7500    0.0000 C   0  0
   -1.2990   -0.7500    0.0000 C   0  0
    0.0000   -1.5000    0.0000 C   0  0
    0.3114   -2.9665    0.0000 N   0  0
   -0.6913   -4.0797    0.0000 S   0  0
   -0.2276   -5.5062    0.0000 O   0  0
    0.7759   -4.3916    0.0000 O   0  0
   -2.1595   -3.7683    0.0000 C   0  0
   -3.1627   -4.8835    0.0000 C   0  0
   -4.6300   -4.5722    0.0000 C   0  0
   -5.6332   -5.6874    0.0000 C   0  0
   -5.0942   -3.1458    0.0000 C   0  0
   -4.0910   -2.0307    0.0000 C   0  0
   -4.5551   -0.6043    0.0000 C   0  0
   -2.6236   -2.3419    0.0000 C   0  0
    6.3130   -8.3105    0.0000 C   0  0
    7.0631   -9.6095    0.0000 C   0  0
  1  2  1  0
  2  3  1  0
  3  4  2  0
  3  5  1  0
  5  6  2  0
  6  7  1  0
  7  8  2  0
  8  9  1  0
  9 10  1  0
 10 11  2  0
 10 12  1  0
 12 13  1  0
 13 14  1  0
 14 15  2  0
 15 16  1  0
 16 17  2  0
 17 18  1  0
 18 19  2  0
 19 20  1  0
 20 21  2  0
 21 16  1  0
 21 22  1  0
 22 14  1  0
 22 23  1  0
 23 24  2  0
 23 25  2  0
 23 26  1  0
 26 27  2  0
 27 28  1  0
 28 29  1  0
 28 30  2  0
 30 31  1  0
 31 32  1  0
 31 33  2  0
 33 26  1  0
  8 34  1  0
 34 35  2  0
 35  5  1  0
M  END
> <Smiles>
COC(=O)c1ccc(NC(=O)CSc2nc3ccccc3n2S(=O)(=O)c2cc(C)cc(C)c2)cc1

> <IC50_uM>
0.17

> <pIC50>
6.769551079

> <Activity>
1

$$$$

  SciTegic10102310092D

 24 25  0  0  1  0            999 V2000
    3.8988   -3.7512    0.0000 C   0  0
    2.5997   -3.0012    0.0000 C   0  0
    2.5988   -1.5004    0.0000 C   0  0
    3.8976   -0.7500    0.0000 C   0  0
    3.8982   -2.2498    0.0000 C   0  0
    1.2990   -0.7500    0.0000 C   0  0
    1.2990    0.7500    0.0000 C   0  0
    0.0000    1.5000    0.0000 C   0  0
    0.0000    3.0000    0.0000 C   0  0
   -1.2991    3.7500    0.0000 C   0  0
   -1.2960    5.2508    0.0000 C   0  0
    0.0048    5.9994    0.0000 C   0  0  1  0  0  0
    1.3026    5.2471    0.0000 O   0  0
    0.0079    7.5002    0.0000 C   0  0
    0.0103    9.0002    0.0000 C   0  0
   -1.2898    8.2525    0.0000 C   0  0
    1.3080    8.2484    0.0000 O   0  0
   -2.5981    3.0000    0.0000 C   0  0
   -3.8971    3.7500    0.0000 O   0  0
   -2.5981    1.5000    0.0000 C   0  0
   -1.2990    0.7500    0.0000 C   0  0
   -1.2990   -0.7500    0.0000 O   0  0
    0.0000   -1.5000    0.0000 C   0  0
    0.0000   -3.0000    0.0000 O   0  0
  1  2  2  0
  2  3  1  0
  3  4  1  0
  3  5  1  0
  3  6  1  0
  6  7  2  0
  7  8  1  0
  8  9  2  0
  9 10  1  0
 10 11  1  0
 11 12  1  0
 12 13  1  6
 12 14  1  0
 14 15  1  0
 14 16  1  0
 14 17  1  0
 10 18  2  0
 18 19  1  0
 18 20  1  0
 20 21  2  0
 21  8  1  0
 21 22  1  0
 22 23  1  0
 23  6  1  0
 23 24  2  0
M  END
> <Smiles>
C=CC(C)(C)c1cc2cc(C[C@@H](O)C(C)(C)O)c(O)cc2oc1=O

> <IC50_uM>
0.17

> <pIC50>
6.769551079

> <Activity>
1

$$$$

  SciTegic10102310092D

 17 19  0  0  1  0            999 V2000
    4.0497   -4.4250    0.0000 C   0  0
    2.5497   -4.4224    0.0000 C   0  0
    1.7978   -5.7203    0.0000 O   0  0
    1.8032   -3.1233    0.0000 C   0  0  2  0  0  0
    2.4133   -1.7530    0.0000 C   0  0
    1.2990   -0.7500    0.0000 C   0  0
    1.2990    0.7500    0.0000 C   0  0
    0.0000    1.5000    0.0000 C   0  0
    0.0000    3.0000    0.0000 C   0  0
   -1.2991    3.7500    0.0000 C   0  0
   -2.5981    3.0000    0.0000 C   0  0
   -3.8971    3.7500    0.0000 O   0  0
   -2.5981    1.5000    0.0000 O   0  0
   -1.2990    0.7500    0.0000 C   0  0
   -1.2990   -0.7500    0.0000 C   0  0
    0.0000   -1.5000    0.0000 C   0  0
    0.3114   -2.9665    0.0000 O   0  0
  1  2  1  0
  2  3  2  0
  4  2  1  1
  4  5  1  0
  5  6  1  0
  6  7  2  0
  7  8  1  0
  8  9  1  0
  9 10  2  0
 10 11  1  0
 11 12  2  0
 11 13  1  0
 13 14  1  0
 14  8  2  0
 14 15  1  0
 15 16  2  0
 16  6  1  0
 16 17  1  0
 17  4  1  0
M  END
> <Smiles>
CC(=O)[C@@H]1Cc2cc3ccc(=O)oc3cc2O1

> <IC50_uM>
0.17

> <pIC50>
6.769551079

> <Activity>
1

$$$$

  SciTegic10102310092D

 18 20  0  0  1  0            999 V2000
    5.8528    1.3033    0.0000 C   0  0
    5.1047    0.0031    0.0000 C   0  0
    5.8570   -1.2946    0.0000 C   0  0
    3.6065    0.0000    0.0000 C   0  0  2  0  0  0
    2.7248   -1.2135    0.0000 C   0  0
    1.2990   -0.7500    0.0000 C   0  0
    1.2990    0.7500    0.0000 C   0  0
    0.0000    1.5000    0.0000 C   0  0
   -1.2990    0.7500    0.0000 C   0  0
   -2.5981    1.5000    0.0000 O   0  0
   -3.8971    0.7500    0.0000 C   0  0
   -5.1962    1.5000    0.0000 O   0  0
   -3.8971   -0.7500    0.0000 C   0  0
   -2.5981   -1.5000    0.0000 C   0  0
   -1.2990   -0.7500    0.0000 C   0  0
    0.0000   -1.5000    0.0000 C   0  0
    0.0000   -3.0000    0.0000 O   0  0
    2.7248    1.2135    0.0000 O   0  0
  1  2  2  0
  2  3  1  0
  4  2  1  6
  4  5  1  0
  5  6  1  0
  6  7  2  0
  7  8  1  0
  8  9  2  0
  9 10  1  0
 10 11  1  0
 11 12  2  0
 11 13  1  0
 13 14  2  0
 14 15  1  0
 15  9  1  0
 15 16  2  0
 16  6  1  0
 16 17  1  0
  7 18  1  0
 18  4  1  0
M  END
> <Smiles>
C=C(C)[C@@H]1Cc2c(cc3oc(=O)ccc3c2O)O1

> <IC50_uM>
0.17

> <pIC50>
6.769551079

> <Activity>
1

$$$$

  SciTegic10102310092D

 28 30  0  0  1  0            999 V2000
    3.8988   -3.7512    0.0000 C   0  0
    2.5997   -3.0012    0.0000 C   0  0
    2.5988   -1.5004    0.0000 C   0  0
    3.8976   -0.7500    0.0000 C   0  0
    3.8982   -2.2498    0.0000 C   0  0
    1.2990   -0.7500    0.0000 C   0  0
    1.2990    0.7500    0.0000 C   0  0
    0.0000    1.5000    0.0000 C   0  0
    0.0000    3.0000    0.0000 C   0  0
   -1.2991    3.7500    0.0000 C   0  0
   -2.5981    3.0000    0.0000 C   0  0
   -2.5981    1.5000    0.0000 C   0  0
   -3.8963    0.7469    0.0000 C   0  0
   -3.8941   -0.7539    0.0000 C   0  0
   -5.1923   -1.5070    0.0000 C   0  0
   -5.1902   -3.0070    0.0000 C   0  0
   -6.4927   -0.7593    0.0000 C   0  0
   -1.2990    0.7500    0.0000 C   0  0
   -1.2990   -0.7500    0.0000 O   0  0
    0.0000   -1.5000    0.0000 C   0  0
    0.0000   -3.0000    0.0000 O   0  0
   -3.7124    4.0029    0.0000 O   0  0
   -3.1023    5.3733    0.0000 C   0  0  2  0  0  0
   -3.8514    6.6708    0.0000 C   0  0
   -3.1010    7.9696    0.0000 C   0  0
   -4.6008    7.9702    0.0000 C   0  0
   -5.3514    6.6717    0.0000 O   0  0
   -1.6105    5.2165    0.0000 C   0  0
  1  2  2  0
  2  3  1  0
  3  4  1  0
  3  5  1  0
  3  6  1  0
  6  7  2  0
  7  8  1  0
  8  9  2  0
  9 10  1  0
 10 11  2  0
 11 12  1  0
 12 13  1  0
 13 14  1  0
 14 15  2  0
 15 16  1  0
 15 17  1  0
 12 18  2  0
 18  8  1  0
 18 19  1  0
 19 20  1  0
 20  6  1  0
 20 21  2  0
 11 22  1  0
 22 23  1  0
 23 24  1  6
 24 25  1  0
 24 26  1  0
 24 27  1  0
 23 28  1  0
 28 10  1  0
M  END
> <Smiles>
C=CC(C)(C)c1cc2cc3c(c(CC=C(C)C)c2oc1=O)O[C@H](C(C)(C)O)C3

> <IC50_uM>
0.17

> <pIC50>
6.769551079

> <Activity>
1

$$$$

  SciTegic10102310092D

 19 20  0  0  0  0            999 V2000
    5.2029   -2.9932    0.0000 C   0  0
    5.2003   -1.4932    0.0000 C   0  0
    6.5005   -2.2411    0.0000 C   0  0
    6.4983   -0.7414    0.0000 O   0  0
    3.8990   -0.7455    0.0000 C   0  0
    3.8964    0.7545    0.0000 O   0  0
    2.6003   -1.4977    0.0000 C   0  0
    1.2990   -0.7500    0.0000 C   0  0
    1.2990    0.7500    0.0000 C   0  0
    0.0000    1.5000    0.0000 C   0  0
    0.0000    3.0000    0.0000 C   0  0
   -1.2991    3.7500    0.0000 C   0  0
   -2.5981    3.0000    0.0000 C   0  0
   -3.8971    3.7500    0.0000 O   0  0
   -2.5981    1.5000    0.0000 O   0  0
   -1.2990    0.7500    0.0000 C   0  0
   -1.2990   -0.7500    0.0000 C   0  0
    0.0000   -1.5000    0.0000 C   0  0
    0.0000   -3.0000    0.0000 O   0  0
  1  2  1  0
  2  3  1  0
  2  4  1  0
  2  5  1  0
  5  6  2  0
  5  7  1  0
  7  8  1  0
  8  9  2  0
  9 10  1  0
 10 11  1  0
 11 12  2  0
 12 13  1  0
 13 14  2  0
 13 15  1  0
 15 16  1  0
 16 10  2  0
 16 17  1  0
 17 18  2  0
 18  8  1  0
 18 19  1  0
M  END
> <Smiles>
CC(C)(O)C(=O)Cc1cc2ccc(=O)oc2cc1O

> <IC50_uM>
0.17

> <pIC50>
6.769551079

> <Activity>
1

$$$$

  SciTegic10102310092D

 24 26  0  0  1  0            999 V2000
    3.8988   -3.7512    0.0000 C   0  0
    2.5997   -3.0012    0.0000 C   0  0
    2.5988   -1.5004    0.0000 C   0  0
    3.8976   -0.7500    0.0000 C   0  0
    3.8982   -2.2498    0.0000 C   0  0
    1.2990   -0.7500    0.0000 C   0  0
    1.2990    0.7500    0.0000 C   0  0
    0.0000    1.5000    0.0000 C   0  0
    0.0000    3.0000    0.0000 C   0  0
   -1.2991    3.7500    0.0000 C   0  0
   -2.5981    3.0000    0.0000 C   0  0
   -2.5981    1.5000    0.0000 C   0  0
   -1.2990    0.7500    0.0000 C   0  0
   -1.2990   -0.7500    0.0000 O   0  0
    0.0000   -1.5000    0.0000 C   0  0
    0.0000   -3.0000    0.0000 O   0  0
   -3.7124    4.0029    0.0000 O   0  0
   -3.1023    5.3733    0.0000 C   0  0  2  0  0  0
   -3.8514    6.6708    0.0000 C   0  0
   -3.1010    7.9696    0.0000 C   0  0
   -4.6008    7.9702    0.0000 C   0  0
   -5.3514    6.6717    0.0000 O   0  0
   -1.6105    5.2165    0.0000 C   0  0  1  0  0  0
   -0.6067    6.3311    0.0000 O   0  0
  1  2  2  0
  2  3  1  0
  3  4  1  0
  3  5  1  0
  3  6  1  0
  6  7  2  0
  7  8  1  0
  8  9  2  0
  9 10  1  0
 10 11  2  0
 11 12  1  0
 12 13  2  0
 13  8  1  0
 13 14  1  0
 14 15  1  0
 15  6  1  0
 15 16  2  0
 11 17  1  0
 17 18  1  0
 18 19  1  6
 19 20  1  0
 19 21  1  0
 19 22  1  0
 18 23  1  0
 23 10  1  0
 23 24  1  1
M  END
> <Smiles>
C=CC(C)(C)c1cc2cc3c(cc2oc1=O)O[C@H](C(C)(C)O)[C@H]3O

> <IC50_uM>
0.17

> <pIC50>
6.769551079

> <Activity>
1

$$$$

  SciTegic10102310092D

 20 21  0  0  1  0            999 V2000
    2.5919    1.5012    0.0000 C   0  0
    3.8933    0.7554    0.0000 O   0  0
    3.8990   -0.7455    0.0000 C   0  0  2  0  0  0
    2.6003   -1.4977    0.0000 C   0  0
    1.2990   -0.7500    0.0000 C   0  0
    1.2990    0.7500    0.0000 C   0  0
    0.0000    1.5000    0.0000 C   0  0
    0.0000    3.0000    0.0000 C   0  0
   -1.2991    3.7500    0.0000 C   0  0
   -2.5981    3.0000    0.0000 C   0  0
   -3.8971    3.7500    0.0000 O   0  0
   -2.5981    1.5000    0.0000 O   0  0
   -1.2990    0.7500    0.0000 C   0  0
   -1.2990   -0.7500    0.0000 C   0  0
    0.0000   -1.5000    0.0000 C   0  0
    0.0000   -3.0000    0.0000 O   0  0
    5.2003   -1.4932    0.0000 C   0  0
    6.5005   -2.2411    0.0000 C   0  0
    5.2029   -2.9932    0.0000 C   0  0
    6.4983   -0.7414    0.0000 O   0  0
  1  2  1  0
  3  2  1  1
  3  4  1  0
  4  5  1  0
  5  6  2  0
  6  7  1  0
  7  8  1  0
  8  9  2  0
  9 10  1  0
 10 11  2  0
 10 12  1  0
 12 13  1  0
 13  7  2  0
 13 14  1  0
 14 15  2  0
 15  5  1  0
 15 16  1  0
  3 17  1  0
 17 18  1  0
 17 19  1  0
 17 20  1  0
M  END
> <Smiles>
CO[C@H](Cc1cc2ccc(=O)oc2cc1O)C(C)(C)O

> <IC50_uM>
0.17

> <pIC50>
6.769551079

> <Activity>
1

$$$$

  SciTegic10102310092D

 19 21  0  0  1  0            999 V2000
    1.2636   -2.2496    0.0000 C   0  0
    1.2990   -0.7500    0.0000 C   0  0
    2.5801    0.0303    0.0000 C   0  0
    1.2990    0.7500    0.0000 O   0  0
    0.0000    1.5000    0.0000 C   0  0
    0.0000    3.0000    0.0000 C   0  0
   -1.2991    3.7500    0.0000 C   0  0
   -1.2991    5.2500    0.0000 O   0  0
   -2.5981    6.0000    0.0000 C   0  0
   -2.5981    7.5000    0.0000 O   0  0
   -3.8972    5.2500    0.0000 C   0  0
   -3.8971    3.7500    0.0000 C   0  0
   -2.5981    3.0000    0.0000 C   0  0
   -2.5981    1.5000    0.0000 C   0  0
   -1.2990    0.7500    0.0000 C   0  0
   -1.2990   -0.7500    0.0000 C   0  0  1  0  0  0
   -2.5981   -1.5000    0.0000 O   0  0
    0.0000   -1.5000    0.0000 C   0  0  2  0  0  0
    0.0000   -3.0000    0.0000 O   0  0
  1  2  1  0
  2  3  1  0
  2  4  1  0
  4  5  1  0
  5  6  2  0
  6  7  1  0
  7  8  1  0
  8  9  1  0
  9 10  2  0
  9 11  1  0
 11 12  2  0
 12 13  1  0
 13  7  2  0
 13 14  1  0
 14 15  2  0
 15  5  1  0
 15 16  1  0
 16 17  1  6
 16 18  1  0
 18  2  1  0
 18 19  1  1
M  END
> <Smiles>
CC1(C)Oc2cc3oc(=O)ccc3cc2[C@@H](O)[C@@H]1O

> <IC50_uM>
0.17

> <pIC50>
6.769551079

> <Activity>
1

$$$$

  SciTegic10102310092D

 19 21  0  0  0  0            999 V2000
    3.8983   -0.7459    0.0000 C   0  0
    2.6003   -1.4977    0.0000 O   0  0
    1.2990   -0.7500    0.0000 C   0  0
    1.2990    0.7500    0.0000 C   0  0
    0.0000    1.5000    0.0000 C   0  0
    0.0000    3.0000    0.0000 C   0  0
   -1.2991    3.7500    0.0000 C   0  0
   -2.5981    3.0000    0.0000 C   0  0
   -2.5981    1.5000    0.0000 C   0  0
   -1.2990    0.7500    0.0000 C   0  0
   -1.2990   -0.7500    0.0000 O   0  0
    0.0000   -1.5000    0.0000 C   0  0
    0.0000   -3.0000    0.0000 O   0  0
   -3.8971    3.7500    0.0000 O   0  0
   -3.8972    5.2500    0.0000 C   0  0
   -5.1781    4.4695    0.0000 C   0  0
   -3.8619    6.7496    0.0000 C   0  0
   -2.5981    6.0000    0.0000 C   0  0
   -1.2991    5.2500    0.0000 C   0  0
  1  2  1  0
  2  3  1  0
  3  4  2  0
  4  5  1  0
  5  6  2  0
  6  7  1  0
  7  8  2  0
  8  9  1  0
  9 10  2  0
 10  5  1  0
 10 11  1  0
 11 12  1  0
 12  3  1  0
 12 13  2  0
  8 14  1  0
 14 15  1  0
 15 16  1  0
 15 17  1  0
 15 18  1  0
 18 19  1  0
 19  7  1  0
M  END
> <Smiles>
COc1cc2cc3c(cc2oc1=O)OC(C)(C)CC3

> <IC50_uM>
0.17

> <pIC50>
6.769551079

> <Activity>
1

$$$$

  SciTegic10102310092D

 18 20  0  0  1  0            999 V2000
    4.0497   -4.4250    0.0000 C   0  0
    2.5497   -4.4224    0.0000 C   0  0
    1.7974   -5.7210    0.0000 C   0  0
    2.5447   -7.0216    0.0000 O   0  0
    1.8032   -3.1233    0.0000 C   0  0  2  0  0  0
    2.4133   -1.7530    0.0000 C   0  0
    1.2990   -0.7500    0.0000 C   0  0
    1.2990    0.7500    0.0000 C   0  0
    0.0000    1.5000    0.0000 C   0  0
    0.0000    3.0000    0.0000 C   0  0
   -1.2991    3.7500    0.0000 C   0  0
   -2.5981    3.0000    0.0000 C   0  0
   -3.8971    3.7500    0.0000 O   0  0
   -2.5981    1.5000    0.0000 O   0  0
   -1.2990    0.7500    0.0000 C   0  0
   -1.2990   -0.7500    0.0000 C   0  0
    0.0000   -1.5000    0.0000 C   0  0
    0.3114   -2.9665    0.0000 O   0  0
  1  2  2  0
  2  3  1  0
  3  4  1  0
  5  2  1  1
  5  6  1  0
  6  7  1  0
  7  8  2  0
  8  9  1  0
  9 10  1  0
 10 11  2  0
 11 12  1  0
 12 13  2  0
 12 14  1  0
 14 15  1  0
 15  9  2  0
 15 16  1  0
 16 17  2  0
 17  7  1  0
 17 18  1  0
 18  5  1  0
M  END
> <Smiles>
C=C(CO)[C@@H]1Cc2cc3ccc(=O)oc3cc2O1

> <IC50_uM>
0.17

> <pIC50>
6.769551079

> <Activity>
1

$$$$

  SciTegic10102310092D

 19 20  0  0  0  0            999 V2000
    2.5981   -1.5000    0.0000 O   0  0
    1.2990   -0.7500    0.0000 C   0  0
    1.2990    0.7500    0.0000 N   0  0
    0.0000    1.5000    0.0000 C   0  0
    0.0000    3.0000    0.0000 O   0  0
   -1.2990    0.7500    0.0000 N   0  0
   -2.5987    1.5004    0.0000 C   0  0  3  0  0  0
   -2.7390    2.9810    0.0000 C   0  0
   -4.2067    3.2905    0.0000 C   0  0  3  0  0  0
   -4.8154    4.6596    0.0000 O   0  0
   -3.9334    5.8739    0.0000 C   0  0
   -4.5429    7.2445    0.0000 O   0  0
   -4.9546    1.9903    0.0000 C   0  0  3  0  0  0
   -6.4441    1.8282    0.0000 C   0  0
   -7.0500    0.4561    0.0000 O   0  0
   -3.9492    0.8772    0.0000 O   0  0
   -1.2990   -0.7500    0.0000 C   0  0
    0.0000   -1.5000    0.0000 C   0  0
    0.0000   -3.0000    0.0000 C   0  0
  1  2  2  0
  2  3  1  0
  3  4  1  0
  4  5  2  0
  4  6  1  0
  7  6  1  4
  7  8  1  0
  8  9  1  0
  9 10  1  4
 10 11  1  0
 11 12  2  0
  9 13  1  0
 13 14  1  4
 14 15  1  0
 13 16  1  0
 16  7  1  0
  6 17  1  0
 17 18  2  0
 18  2  1  0
 18 19  1  0
M  END
> <Smiles>
O=C1NC(=O)N(C2CC(OC=O)C(CO)O2)C=C1C

> <IC50_uM>
0.173780083

> <pIC50>
6.76

> <Activity>
1

$$$$

  SciTegic10102310092D

 16 16  0  0  0  0            999 V2000
    1.6852   -0.3846    0.0000 C   0  0
    3.1497   -0.7220    0.0000 C   0  0
    3.5900   -2.1568    0.0000 O   0  0
    5.0525   -2.4938    0.0000 C   0  0
    5.4926   -3.9277    0.0000 C   0  0
    4.1718    0.3758    0.0000 O   0  0
    1.3514    1.0778    0.0000 S   0  0
    2.7306    0.4879    0.0000 O   0  0
    1.0834    2.5536    0.0000 O   0  0
    0.0000    1.7286    0.0000 O   0  0
   -1.3515    1.0777    0.0000 C   0  0
   -1.6852   -0.3847    0.0000 C   0  0
   -0.7500   -1.5574    0.0000 O   0  0
    0.7500   -1.5574    0.0000 S   0  0
    2.2485   -1.6243    0.0000 O   0  0
   -0.1318   -2.7708    0.0000 O   0  0
  1  2  1  0
  2  3  1  0
  3  4  1  0
  4  5  1  0
  2  6  2  0
  1  7  1  0
  7  8  2  0
  7  9  2  0
  7 10  1  0
 10 11  1  0
 11 12  1  0
 12 13  1  0
 13 14  1  0
 14  1  1  0
 14 15  2  0
 14 16  2  0
M  END
> <Smiles>
C1(C(OCC)=O)S(=O)(=O)OCCOS1(=O)=O

> <IC50_uM>
0.173780083

> <pIC50>
6.76

> <Activity>
1

$$$$

  SciTegic10102310092D

 33 36  0  0  1  0            999 V2000
    3.1676   -7.5606    0.0000 C   0  0
    1.7006   -7.2475    0.0000 C   0  0
    0.6960   -8.3614    0.0000 C   0  0
   -0.7710   -8.0483    0.0000 C   0  0
   -1.7756   -9.1622    0.0000 C   0  0
   -1.2333   -6.6213    0.0000 C   0  0
   -0.2287   -5.5075    0.0000 C   0  0
   -0.6913   -4.0797    0.0000 S   0  0
   -2.1584   -3.7671    0.0000 O   0  0
   -1.6957   -5.1937    0.0000 O   0  0
    0.3114   -2.9665    0.0000 C   0  0
    1.8032   -3.1233    0.0000 C   0  0
    2.5551   -4.4192    0.0000 C   0  0
    1.8074   -5.7196    0.0000 O   0  0
    4.0559   -4.4171    0.0000 N   0  0
    4.8090   -5.7153    0.0000 C   0  0  1  0  0  0
    4.0613   -7.0156    0.0000 C   0  0
    6.3098   -5.7131    0.0000 C   0  0
    7.0554   -4.4114    0.0000 C   0  0
    8.5554   -4.4062    0.0000 C   0  0
    9.3099   -5.7026    0.0000 C   0  0
    8.5644   -7.0043    0.0000 C   0  0
    7.0644   -7.0095    0.0000 C   0  0
    6.3190   -8.3111    0.0000 F   0  0
    2.4133   -1.7530    0.0000 N   0  0
    1.2990   -0.7500    0.0000 C   0  0
    1.2990    0.7500    0.0000 C   0  0
    0.0000    1.5000    0.0000 C   0  0
   -1.2990    0.7500    0.0000 C   0  0
   -2.5981    1.5000    0.0000 Cl  0  0
   -1.2990   -0.7500    0.0000 C   0  0
    0.0000   -1.5000    0.0000 C   0  0
    1.2383   -5.8206    0.0000 C   0  0
  1  2  1  0
  2  3  2  0
  3  4  1  0
  4  5  1  0
  4  6  2  0
  6  7  1  0
  7  8  1  0
  8  9  2  0
  8 10  2  0
  8 11  1  0
 11 12  2  0
 12 13  1  0
 13 14  2  0
 13 15  1  0
 15 16  1  0
 16 17  1  6
 16 18  1  0
 18 19  2  0
 19 20  1  0
 20 21  2  0
 21 22  1  0
 22 23  2  0
 23 18  1  0
 23 24  1  0
 12 25  1  0
 25 26  1  0
 26 27  2  0
 27 28  1  0
 28 29  2  0
 29 30  1  0
 29 31  1  0
 31 32  2  0
 32 11  1  0
 32 26  1  0
  7 33  2  0
 33  2  1  0
M  END
> <Smiles>
Cc1cc(C)cc(S(=O)(=O)c2c(C(=O)N[C@@H](C)c3ccccc3F)[nH]c3ccc(Cl)cc23)c1

> <IC50_uM>
0.175

> <pIC50>
6.756961951

> <Activity>
1

$$$$

  SciTegic10102310092D

 37 40  0  0  0  0            999 V2000
    2.5951   -3.0031    0.0000 C   0  0
    2.5973   -1.5031    0.0000 O   0  0
    1.2990   -0.7500    0.0000 C   0  0
    1.2990    0.7500    0.0000 C   0  0
    0.0000    1.5000    0.0000 C   0  0
   -0.0031    3.0008    0.0000 O   0  0
   -1.3039    3.7494    0.0000 C   0  0
   -1.3092    5.2494    0.0000 C   0  0
   -0.0128    6.0039    0.0000 C   0  0
   -2.6108    5.9949    0.0000 C   0  0
   -3.9073    5.2404    0.0000 C   0  0
   -5.2096    5.9863    0.0000 C   0  0
   -6.5112    6.7318    0.0000 N   0  0
   -3.9021    3.7404    0.0000 C   0  0
   -2.6005    2.9949    0.0000 C   0  0
   -2.5953    1.4949    0.0000 C   0  0
   -1.2990    0.7500    0.0000 C   0  0
   -1.2990   -0.7500    0.0000 C   0  0
   -2.5972   -1.5031    0.0000 N   0  0
   -2.5951   -3.0039    0.0000 C   0  0
   -3.8915   -3.7585    0.0000 C   0  0
   -3.8863   -5.2585    0.0000 C   0  0
   -2.5847   -6.0040    0.0000 N   0  0
   -2.5764   -7.5048    0.0000 C   0  0
   -1.2730   -8.2489    0.0000 C   0  0
   -1.2625   -9.7489    0.0000 C   0  0
    0.0417  -10.4898    0.0000 C   0  0
    1.3355   -9.7309    0.0000 C   0  0
    2.6404  -10.4723    0.0000 S   0  0
    3.9340   -9.7129    0.0000 C   0  0
    2.6517  -11.9722    0.0000 O   0  0
    3.9449  -11.2126    0.0000 O   0  0
    1.3251   -8.2309    0.0000 C   0  0
    0.0209   -7.4899    0.0000 C   0  0
   -1.2883   -5.2495    0.0000 C   0  0
   -1.2935   -3.7495    0.0000 C   0  0
    0.0000   -1.5000    0.0000 N   0  0
  1  2  1  0
  2  3  1  0
  3  4  2  0
  4  5  1  0
  5  6  1  0
  6  7  1  0
  7  8  2  0
  8  9  1  0
  8 10  1  0
 10 11  2  0
 11 12  1  0
 12 13  3  0
 11 14  1  0
 14 15  2  0
 15  7  1  0
 15 16  1  0
  5 17  2  0
 17 18  1  0
 18 19  1  0
 19 20  1  0
 20 21  1  0
 21 22  1  0
 22 23  1  0
 23 24  1  0
 24 25  1  0
 25 26  2  0
 26 27  1  0
 27 28  2  0
 28 29  1  0
 29 30  1  0
 29 31  2  0
 29 32  2  0
 28 33  1  0
 33 34  2  0
 34 25  1  0
 23 35  1  0
 35 36  1  0
 36 20  1  0
 18 37  2  0
 37  3  1  0
M  END
> <Smiles>
COc1cc(Oc2c(C)cc(C#N)cc2C)cc(NC2CCN(Cc3ccc(S(C)(=O)=O)cc3)CC2)n1

> <IC50_uM>
0.175

> <pIC50>
6.756961951

> <Activity>
1

$$$$

  SciTegic10102310092D

 32 34  0  0  0  0            999 V2000
    2.5981   -1.5000    0.0000 C   0  0
    1.2990   -0.7500    0.0000 C   0  0
    1.2990    0.7500    0.0000 C   0  0
    0.0000    1.5000    0.0000 C   0  0
    0.0000    3.0008    0.0000 C   0  0
    0.0000    4.5008    0.0000 N   0  0
   -1.2990    0.7500    0.0000 C   0  0
   -1.2990   -0.7500    0.0000 C   0  0
   -2.5981   -1.5000    0.0000 C   0  0
    0.0000   -1.5000    0.0000 C   0  0
    0.0031   -3.0008    0.0000 O   0  0
    1.3039   -3.7494    0.0000 C   0  0
    1.3092   -5.2494    0.0000 C   0  0
    2.6108   -5.9949    0.0000 C   0  0
    3.9073   -5.2404    0.0000 N   0  0
    3.9021   -3.7404    0.0000 C   0  0
    5.1992   -2.9855    0.0000 S   0  0
    5.1936   -1.4855    0.0000 O   0  0
    6.4953   -2.2304    0.0000 O   0  0
    6.5020   -3.7306    0.0000 C   0  0
    7.7992   -2.9757    0.0000 C   0  0
    7.7935   -1.4757    0.0000 O   0  0
    9.1020   -3.7208    0.0000 N   0  0
   10.3991   -2.9659    0.0000 C   0  0
   11.7024   -3.7087    0.0000 C   0  0
   12.9972   -2.9515    0.0000 C   0  0
   12.9890   -1.4516    0.0000 C   0  0
   14.2839   -0.6944    0.0000 Cl  0  0
   11.6859   -0.7087    0.0000 C   0  0
   11.6776    0.7913    0.0000 Cl  0  0
   10.3910   -1.4658    0.0000 C   0  0
    2.6004   -2.9949    0.0000 N   0  0
  1  2  1  0
  2  3  2  0
  3  4  1  0
  4  5  1  0
  5  6  3  0
  4  7  2  0
  7  8  1  0
  8  9  1  0
  8 10  2  0
 10  2  1  0
 10 11  1  0
 11 12  1  0
 12 13  2  0
 13 14  1  0
 14 15  2  0
 15 16  1  0
 16 17  1  0
 17 18  2  0
 17 19  2  0
 17 20  1  0
 20 21  1  0
 21 22  2  0
 21 23  1  0
 23 24  1  0
 24 25  2  0
 25 26  1  0
 26 27  2  0
 27 28  1  0
 27 29  1  0
 29 30  1  0
 29 31  2  0
 31 24  1  0
 16 32  2  0
 32 12  1  0
M  END
> <Smiles>
Cc1cc(C#N)cc(C)c1Oc1ccnc(S(=O)(=O)CC(=O)Nc2ccc(Cl)c(Cl)c2)n1

> <IC50_uM>
0.177

> <pIC50>
6.752026734

> <Activity>
1

$$$$

  SciTegic10102310092D

 13 13  0  0  0  0            999 V2000
    1.2990   -0.7500    0.0000 C   0  0
    2.5988   -1.5004    0.0000 P   0  0  3  0  0  0
    2.5983   -3.0004    0.0000 S   0  0
    3.8990   -0.7508    0.0000 C   0  0
    5.1988   -1.5012    0.0000 C   0  0
    5.1983   -3.0012    0.0000 O   0  0
    6.4983   -0.7520    0.0000 O   0  0
    3.8975   -2.2510    0.0000 S   0  0
    1.2990    0.7500    0.0000 C   0  0
    0.0000    1.5000    0.0000 C   0  0
   -1.2990    0.7500    0.0000 C   0  0
   -1.2990   -0.7500    0.0000 C   0  0
    0.0000   -1.5000    0.0000 C   0  0
  1  2  1  0
  2  3  1  4
  2  4  1  0
  4  5  1  0
  5  6  1  0
  5  7  2  0
  2  8  2  0
  1  9  2  0
  9 10  1  0
 10 11  2  0
 11 12  1  0
 12 13  2  0
 13  1  1  0
M  END
> <Smiles>
c1(P(S)(CC(O)=O)=S)ccccc1

> <IC50_uM>
0.177827941

> <pIC50>
6.75

> <Activity>
1

$$$$

  SciTegic10102310092D

 20 20  0  0  0  0            999 V2000
    1.2990   -0.7500    0.0000 C   0  0
    1.2990    0.7500    0.0000 C   0  0
    0.0000    1.5000    0.0000 C   0  0
   -1.2990    0.7500    0.0000 C   0  0
   -1.2990   -0.7500    0.0000 C   0  0
    0.0000   -1.5000    0.0000 C   0  0
    2.5988   -1.5004    0.0000 C   0  0
    2.5983   -3.0012    0.0000 C   0  0
    1.7320   -3.5006    0.0000 O   0  0
    3.8966   -3.7524    0.0000 O   0  0
    3.8990   -0.7508    0.0000 C   0  0
    5.1988   -1.5012    0.0000 C   0  0
    6.4990   -0.7516    0.0000 C   0  0
    6.4995    0.7484    0.0000 O   0  0
    7.7980   -1.5016    0.0000 O   0  0
    1.2746   -2.2668    0.0000 C   0  0
    1.2754   -3.7677    0.0000 C   0  0
   -0.0235   -4.5196    0.0000 C   0  0
   -1.3232   -3.7706    0.0000 O   0  0
   -0.0228   -6.0196    0.0000 O   0  0
  1  2  2  0
  2  3  1  0
  3  4  2  0
  4  5  1  0
  5  6  2  0
  6  1  1  0
  1  7  1  0
  7  8  1  0
  8  9  1  0
  8 10  2  0
  7 11  1  0
 11 12  1  0
 12 13  1  0
 13 14  1  0
 13 15  2  0
  7 16  1  0
 16 17  1  0
 17 18  1  0
 18 19  1  0
 18 20  2  0
M  END
> <Smiles>
c1(ccccc1)C(C(O)=O)(CCC(O)=O)CCC(O)=O

> <IC50_uM>
0.177827941

> <pIC50>
6.75

> <Activity>
1

$$$$

  SciTegic10102310092D

 18 20  0  0  0  0            999 V2000
    1.2990   -0.7500    0.0000 C   0  0
    1.2990    0.7500    0.0000 C   0  0
    0.0000    1.5000    0.0000 C   0  0
   -1.2990    0.7500    0.0000 C   0  0
   -2.5981    1.5000    0.0000 O   0  0
   -3.8971    0.7500    0.0000 C   0  0
   -5.1962    1.5000    0.0000 C   0  0
   -5.1993    3.0008    0.0000 C   0  0
   -6.5001    3.7494    0.0000 C   0  0
   -7.7978    2.9971    0.0000 O   0  0
   -6.5032    5.2493    0.0000 O   0  0
   -6.4952    0.7500    0.0000 C   0  0
   -6.4952   -0.7500    0.0000 C   0  0
   -5.1961   -1.5000    0.0000 C   0  0
   -3.8971   -0.7500    0.0000 C   0  0
   -2.5981   -1.5000    0.0000 S   0  0
   -1.2990   -0.7500    0.0000 C   0  0
    0.0000   -1.5000    0.0000 C   0  0
  1  2  2  0
  2  3  1  0
  3  4  2  0
  4  5  1  0
  5  6  1  0
  6  7  2  0
  7  8  1  0
  8  9  1  0
  9 10  1  0
  9 11  2  0
  7 12  1  0
 12 13  2  0
 13 14  1  0
  6 15  1  0
 15 14  2  0
 15 16  1  0
  4 17  1  0
 17 16  1  0
 17 18  2  0
 18  1  1  0
M  END
> <Smiles>
c1ccc(Oc(c(CC(O)=O)ccc2)c2S3)c3c1

> <IC50_uM>
0.177827941

> <pIC50>
6.75

> <Activity>
1

$$$$

  SciTegic10102310092D

 36 39  0  0  0  0            999 V2000
    2.5981   -1.5000    0.0000 C   0  0
    1.2990   -0.7500    0.0000 C   0  0
    1.2990    0.7500    0.0000 C   0  0
    0.0000    1.5000    0.0000 C   0  0
   -1.2990    0.7500    0.0000 C   0  0
   -2.5987    1.5004    0.0000 C   0  0
   -2.7390    2.9810    0.0000 C   0  0
   -1.6216    3.9790    0.0000 S   0  0
   -1.9268    5.4485    0.0000 C   0  0
   -0.8074    6.4483    0.0000 C   0  0
    0.6171    5.9785    0.0000 O   0  0
   -1.1126    7.9177    0.0000 N   0  0
    0.0068    8.9175    0.0000 C   0  0
    1.4306    8.4453    0.0000 C   0  0
    2.5514    9.4422    0.0000 C   0  0
    2.2485   10.9113    0.0000 C   0  0
    3.3698   11.9087    0.0000 C   0  0
    4.7944   11.4389    0.0000 C   0  0
    5.9136   12.4376    0.0000 C   0  0
    5.6083   13.9062    0.0000 C   0  0
    6.7261   14.9077    0.0000 C   0  0
    6.4185   16.3767    0.0000 C   0  0
    7.5357   17.3777    0.0000 O   0  0
    4.9932   16.8441    0.0000 O   0  0
    4.1838   14.3761    0.0000 C   0  0
    3.0646   13.3774    0.0000 C   0  0
    0.8247   11.3835    0.0000 C   0  0
   -0.2961   10.3866    0.0000 C   0  0
   -1.7198   10.8588    0.0000 Cl  0  0
   -4.2067    3.2905    0.0000 C   0  0
   -4.9546    1.9903    0.0000 N   0  0
   -3.9492    0.8772    0.0000 N   0  0
   -4.2500   -0.5923    0.0000 C   0  0
   -1.2990   -0.7500    0.0000 C   0  0
   -2.5981   -1.5000    0.0000 Cl  0  0
    0.0000   -1.5000    0.0000 C   0  0
  1  2  1  0
  2  3  2  0
  3  4  1  0
  4  5  2  0
  5  6  1  0
  6  7  2  0
  7  8  1  0
  8  9  1  0
  9 10  1  0
 10 11  2  0
 10 12  1  0
 12 13  1  0
 13 14  2  0
 14 15  1  0
 15 16  2  0
 16 17  1  0
 17 18  2  0
 18 19  1  0
 19 20  2  0
 20 21  1  0
 21 22  1  0
 22 23  2  0
 22 24  1  0
 20 25  1  0
 25 26  2  0
 26 17  1  0
 16 27  1  0
 27 28  2  0
 28 13  1  0
 28 29  1  0
  7 30  1  0
 30 31  2  0
 31 32  1  0
 32  6  1  0
 32 33  1  0
  5 34  1  4
 34 35  1  0
 34 36  2  0
 36  2  1  0
M  END
> <Smiles>
Cc1ccc(-c2c(SCC(=O)Nc3ccc(-c4ccc(CC(=O)O)cc4)cc3Cl)cnn2C)c(Cl)c1

> <IC50_uM>
0.178

> <pIC50>
6.749579998

> <Activity>
1

$$$$

  SciTegic10102310092D

 30 33  0  0  0  0            999 V2000
    5.2059   -2.9909    0.0000 C   0  0
    5.2007   -1.4909    0.0000 C   0  0
    6.4972   -0.7364    0.0000 C   0  0
    7.7988   -1.4819    0.0000 O   0  0
    6.4920    0.7636    0.0000 N   0  0
    5.1903    1.5091    0.0000 C   0  0
    5.1821    3.0099    0.0000 S   0  0
    3.8787    3.7539    0.0000 C   0  0
    3.8704    5.2547    0.0000 C   0  0
    5.1655    6.0115    0.0000 O   0  0
    2.5670    5.9988    0.0000 C   0  0
    2.5565    7.4988    0.0000 C   0  0
    1.2523    8.2398    0.0000 C   0  0
   -0.0415    7.4808    0.0000 C   0  0
   -1.3457    8.2218    0.0000 F   0  0
   -0.0311    5.9809    0.0000 C   0  0
    1.2731    5.2399    0.0000 C   0  0
    3.8939    0.7546    0.0000 N   0  0
    3.8990   -0.7455    0.0000 C   0  0
    2.6003   -1.4977    0.0000 C   0  0
    1.2990   -0.7500    0.0000 C   0  0
    1.2990    0.7500    0.0000 C   0  0
    0.0000    1.5000    0.0000 C   0  0
   -1.2990    0.7500    0.0000 C   0  0
   -1.2990   -0.7500    0.0000 C   0  0
   -2.5981   -1.5000    0.0000 C   0  0
   -2.5981   -3.0000    0.0000 C   0  0
   -1.2990   -3.7500    0.0000 C   0  0
    0.0000   -3.0000    0.0000 C   0  0
    0.0000   -1.5000    0.0000 C   0  0
  1  2  1  0
  2  3  2  0
  3  4  1  0
  3  5  1  0
  5  6  2  0
  6  7  1  0
  7  8  1  0
  8  9  1  0
  9 10  2  0
  9 11  1  0
 11 12  2  0
 12 13  1  0
 13 14  2  0
 14 15  1  0
 14 16  1  0
 16 17  2  0
 17 11  1  0
  6 18  1  0
 18 19  2  0
 19  2  1  0
 19 20  1  0
 20 21  1  0
 21 22  2  0
 22 23  1  0
 23 24  2  0
 24 25  1  0
 25 26  2  0
 26 27  1  0
 27 28  2  0
 28 29  1  0
 29 30  2  0
 30 21  1  0
 30 25  1  0
M  END
> <Smiles>
Cc1c(O)nc(SCC(=O)c2ccc(F)cc2)nc1Cc1cccc2ccccc12

> <IC50_uM>
0.18

> <pIC50>
6.744727495

> <Activity>
1

$$$$

  SciTegic10102310092D

 32 35  0  0  0  0            999 V2000
    3.1676   -7.5606    0.0000 C   0  0
    1.7006   -7.2475    0.0000 C   0  0
    0.6960   -8.3614    0.0000 C   0  0
   -0.7710   -8.0483    0.0000 C   0  0
   -1.7756   -9.1622    0.0000 C   0  0
   -1.2333   -6.6213    0.0000 C   0  0
   -0.2287   -5.5075    0.0000 C   0  0
   -0.6913   -4.0797    0.0000 S   0  0
   -2.1584   -3.7671    0.0000 O   0  0
   -1.6957   -5.1937    0.0000 O   0  0
    0.3114   -2.9665    0.0000 N   0  0
    1.8032   -3.1233    0.0000 C   0  0
    2.5551   -4.4192    0.0000 S   0  0
    4.0559   -4.4171    0.0000 C   0  0
    4.8090   -5.7153    0.0000 C   0  0
    4.0613   -7.0156    0.0000 O   0  0
    6.3098   -5.7131    0.0000 N   0  0
    7.0629   -7.0113    0.0000 C   0  0
    6.3130   -8.3104    0.0000 C   0  0
    7.0631   -9.6094    0.0000 C   0  0
    8.5631   -9.6094    0.0000 C   0  0
    9.3130   -8.3103    0.0000 C   0  0
    8.5630   -7.0113    0.0000 C   0  0
    9.3129   -5.7122    0.0000 Br  0  0
    2.4133   -1.7530    0.0000 N   0  0
    1.2990   -0.7500    0.0000 C   0  0
    1.2990    0.7500    0.0000 C   0  0
    0.0000    1.5000    0.0000 C   0  0
   -1.2990    0.7500    0.0000 C   0  0
   -1.2990   -0.7500    0.0000 C   0  0
    0.0000   -1.5000    0.0000 C   0  0
    1.2383   -5.8206    0.0000 C   0  0
  1  2  1  0
  2  3  2  0
  3  4  1  0
  4  5  1  0
  4  6  2  0
  6  7  1  0
  7  8  1  0
  8  9  2  0
  8 10  2  0
  8 11  1  0
 11 12  1  0
 12 13  1  0
 13 14  1  0
 14 15  1  0
 15 16  2  0
 15 17  1  0
 17 18  1  0
 18 19  2  0
 19 20  1  0
 20 21  2  0
 21 22  1  0
 22 23  2  0
 23 18  1  0
 23 24  1  0
 12 25  2  0
 25 26  1  0
 26 27  2  0
 27 28  1  0
 28 29  2  0
 29 30  1  0
 30 31  2  0
 31 26  1  0
 31 11  1  0
  7 32  2  0
 32  2  1  0
M  END
> <Smiles>
Cc1cc(C)cc(S(=O)(=O)n2c(SCC(=O)Nc3ccccc3Br)nc3ccccc32)c1

> <IC50_uM>
0.18

> <pIC50>
6.744727495

> <Activity>
1

$$$$

  SciTegic10102310092D

 23 24  0  0  0  0            999 V2000
    3.8912   -5.2570    0.0000 C   0  0
    3.8933   -3.7570    0.0000 C   0  0
    2.5951   -3.0039    0.0000 C   0  0
    2.5973   -1.5031    0.0000 N   0  0
    3.8976   -0.7553    0.0000 C   0  0
    1.2990   -0.7500    0.0000 C   0  0
    1.2990    0.7500    0.0000 N   0  0
    0.0000    1.5000    0.0000 C   0  0
    0.0031    3.0008    0.0000 C   0  0  3  0  0  0
   -1.2947    3.7531    0.0000 C   0  0
    1.3039    3.7494    0.0000 C   0  0
    1.3092    5.2494    0.0000 C   0  0
    0.0127    6.0039    0.0000 F   0  0
    2.6108    5.9949    0.0000 C   0  0
    3.9072    5.2405    0.0000 C   0  0
    3.9020    3.7405    0.0000 C   0  0
    2.6004    2.9949    0.0000 C   0  0
    2.5953    1.4950    0.0000 F   0  0
   -1.2990    0.7500    0.0000 C   0  0
   -2.5981    1.5000    0.0000 C   0  0
   -1.2990   -0.7500    0.0000 C   0  0
   -2.5981   -1.5000    0.0000 O   0  0
    0.0000   -1.5000    0.0000 N   0  0
  1  2  1  0
  2  3  1  0
  3  4  1  0
  4  5  1  0
  4  6  1  0
  6  7  2  0
  7  8  1  0
  8  9  1  0
  9 10  1  4
  9 11  1  0
 11 12  2  0
 12 13  1  0
 12 14  1  0
 14 15  2  0
 15 16  1  0
 16 17  2  0
 17 11  1  0
 17 18  1  0
  8 19  2  0
 19 20  1  0
 19 21  1  0
 21 22  2  0
 21 23  1  0
 23  6  1  0
M  END
> <Smiles>
CCCN(C)c1nc(C(C)c2c(F)cccc2F)c(C)c(=O)[nH]1

> <IC50_uM>
0.18

> <pIC50>
6.744727495

> <Activity>
1

$$$$

  SciTegic10102310092D

 24 26  0  0  0  0            999 V2000
    3.1676   -7.5606    0.0000 C   0  0
    1.7006   -7.2475    0.0000 C   0  0
    0.6960   -8.3614    0.0000 C   0  0
   -0.7710   -8.0483    0.0000 C   0  0
   -1.7756   -9.1622    0.0000 C   0  0
   -1.2333   -6.6213    0.0000 C   0  0
   -2.7003   -6.3082    0.0000 C   0  0
   -0.2287   -5.5075    0.0000 C   0  0
   -0.6913   -4.0797    0.0000 S   0  0
   -2.1584   -3.7671    0.0000 O   0  0
   -1.6957   -5.1937    0.0000 O   0  0
    0.3114   -2.9665    0.0000 N   0  0
    1.8032   -3.1233    0.0000 C   0  0
    2.3032   -3.9893    0.0000 O   0  0
    2.4133   -1.7530    0.0000 N   0  0
    1.2990   -0.7500    0.0000 C   0  0
    1.2990    0.7500    0.0000 C   0  0
    0.0000    1.5000    0.0000 C   0  0
   -1.2990    0.7500    0.0000 C   0  0
   -2.5981    1.5000    0.0000 Cl  0  0
   -1.2990   -0.7500    0.0000 C   0  0
    0.0000   -1.5000    0.0000 C   0  0
    1.2383   -5.8206    0.0000 C   0  0
    1.9080   -5.0780    0.0000 C   0  0
  1  2  1  0
  2  3  2  0
  3  4  1  0
  4  5  1  0
  4  6  2  0
  6  7  1  0
  6  8  1  0
  8  9  1  0
  9 10  2  0
  9 11  2  0
  9 12  1  0
 12 13  1  0
 13 14  2  0
 13 15  1  0
 15 16  1  0
 16 17  2  0
 17 18  1  0
 18 19  2  0
 19 20  1  0
 19 21  1  0
 21 22  2  0
 22 16  1  0
 22 12  1  0
  8 23  2  0
 23  2  1  0
 23 24  1  0
M  END
> <Smiles>
Cc1cc(C)c(C)c(S(=O)(=O)n2c(=O)[nH]c3ccc(Cl)cc32)c1C

> <IC50_uM>
0.18

> <pIC50>
6.744727495

> <Activity>
1

$$$$

  SciTegic10102310092D

 15 15  0  0  0  0            999 V2000
    1.2990   -0.7500    0.0000 C   0  0
    2.5988   -1.5004    0.0000 P   0  0  3  0  0  0
    2.5983   -3.0004    0.0000 S   0  0
    3.8990   -0.7508    0.0000 C   0  0
    5.1988   -1.5012    0.0000 C   0  0
    6.4990   -0.7516    0.0000 O   0  0
    7.7988   -1.5020    0.0000 C   0  0
    9.0983   -0.7529    0.0000 C   0  0
    5.1983   -3.0012    0.0000 O   0  0
    3.8975   -2.2510    0.0000 S   0  0
    1.2990    0.7500    0.0000 C   0  0
    0.0000    1.5000    0.0000 C   0  0
   -1.2990    0.7500    0.0000 C   0  0
   -1.2990   -0.7500    0.0000 C   0  0
    0.0000   -1.5000    0.0000 C   0  0
  1  2  1  0
  2  3  1  4
  2  4  1  0
  4  5  1  0
  5  6  1  0
  6  7  1  0
  7  8  1  0
  5  9  2  0
  2 10  2  0
  1 11  2  0
 11 12  1  0
 12 13  2  0
 13 14  1  0
 14 15  2  0
 15  1  1  0
M  END
> <Smiles>
c1(P(S)(CC(OCC)=O)=S)ccccc1

> <IC50_uM>
0.181970086

> <pIC50>
6.74

> <Activity>
1

$$$$

  SciTegic10102310092D

 13 14  0  0  0  0            999 V2000
    1.2990   -0.7500    0.0000 C   0  0
    1.2990    0.7500    0.0000 C   0  0
    2.4133    1.7530    0.0000 N   0  0
    1.8032    3.1233    0.0000 C   0  0
    0.3114    2.9665    0.0000 N   0  0
   -0.6890    4.0818    0.0000 C   0  0
   -0.2235    5.5086    0.0000 C   0  0
    1.2442    5.8182    0.0000 N   0  0
   -1.2251    6.6252    0.0000 N   0  0
    0.0000    1.5000    0.0000 C   0  0
   -1.2990    0.7500    0.0000 C   0  0
   -1.2990   -0.7500    0.0000 C   0  0
    0.0000   -1.5000    0.0000 C   0  0
  1  2  2  0
  2  3  1  0
  3  4  2  0
  4  5  1  0
  5  6  1  0
  6  7  1  0
  7  8  1  0
  7  9  2  0
  2 10  1  0
 10  5  1  0
 10 11  2  0
 11 12  1  0
 12 13  2  0
 13  1  1  0
M  END
> <Smiles>
c1c(ncn2CC(N)=N)c2ccc1

> <IC50_uM>
0.181970086

> <pIC50>
6.74

> <Activity>
1

$$$$

  SciTegic10102310092D

 43 47  0  0  0  0            999 V2000
    9.0907   -3.7853    0.0000 C   0  0
    7.7954   -3.0289    0.0000 C   0  0
    6.4915   -3.7721    0.0000 O   0  0
    5.1954   -3.0153    0.0000 C   0  0
    5.2033   -1.5153    0.0000 O   0  0
    3.8915   -3.7585    0.0000 C   0  0  3  0  0  0
    3.8864   -5.2585    0.0000 C   0  0
    2.5847   -6.0040    0.0000 N   0  0
    2.5765   -7.5048    0.0000 C   0  0
    1.2731   -8.2489    0.0000 C   0  0
    1.2626   -9.7489    0.0000 C   0  0
   -0.0416  -10.4898    0.0000 C   0  0
   -1.3354   -9.7309    0.0000 C   0  0
   -2.6403  -10.4723    0.0000 S   0  0
   -3.9339   -9.7129    0.0000 N   0  0
   -2.6517  -11.9722    0.0000 O   0  0
   -3.9449  -11.2127    0.0000 O   0  0
   -1.3250   -8.2309    0.0000 C   0  0
   -0.0209   -7.4899    0.0000 C   0  0
    1.2883   -5.2495    0.0000 C   0  0
    1.2935   -3.7495    0.0000 C   0  0
    2.5951   -3.0039    0.0000 C   0  0  3  0  0  0
    2.5973   -1.5031    0.0000 N   0  0
    1.2990   -0.7500    0.0000 C   0  0
    1.2990    0.7500    0.0000 N   0  0
    0.0000    1.5000    0.0000 C   0  0
    0.0031    3.0008    0.0000 O   0  0
    1.3039    3.7494    0.0000 C   0  0
    1.3092    5.2494    0.0000 C   0  0
    0.0127    6.0039    0.0000 C   0  0
    2.6108    5.9949    0.0000 C   0  0
    3.9072    5.2405    0.0000 C   0  0
    5.2096    5.9864    0.0000 C   0  0
    6.5112    6.7319    0.0000 N   0  0
    3.9020    3.7405    0.0000 C   0  0
    2.6004    2.9949    0.0000 C   0  0
    2.5953    1.4950    0.0000 C   0  0
   -1.2990    0.7500    0.0000 C   0  0
   -2.7248    1.2135    0.0000 S   0  0
   -3.6065    0.0000    0.0000 C   0  0
   -2.7248   -1.2135    0.0000 C   0  0
   -1.2990   -0.7500    0.0000 C   0  0
    0.0000   -1.5000    0.0000 N   0  0
  1  2  1  0
  2  3  1  0
  3  4  1  0
  4  5  2  0
  6  4  1  4
  6  7  1  0
  7  8  1  0
  8  9  1  0
  9 10  1  0
 10 11  2  0
 11 12  1  0
 12 13  2  0
 13 14  1  0
 14 15  1  0
 14 16  2  0
 14 17  2  0
 13 18  1  0
 18 19  2  0
 19 10  1  0
  8 20  1  0
 20 21  1  0
 21 22  1  0
 22  6  1  0
 22 23  1  4
 23 24  1  0
 24 25  2  0
 25 26  1  0
 26 27  1  0
 27 28  1  0
 28 29  2  0
 29 30  1  0
 29 31  1  0
 31 32  2  0
 32 33  1  0
 33 34  3  0
 32 35  1  0
 35 36  2  0
 36 28  1  0
 36 37  1  0
 26 38  2  0
 38 39  1  0
 39 40  1  0
 40 41  2  0
 41 42  1  0
 42 38  1  0
 42 43  2  0
 43 24  1  0
M  END
> <Smiles>
CCOC(=O)C1CN(Cc2ccc(S(N)(=O)=O)cc2)CCC1Nc1nc(Oc2c(C)cc(C#N)cc2C)c2sccc2n1

> <IC50_uM>
0.186

> <pIC50>
6.730487056

> <Activity>
1

$$$$

  SciTegic10102310092D

 43 46  0  0  1  0            999 V2000
   11.6934   -3.7531    0.0000 C   0  0
   10.3967   -2.9990    0.0000 C   0  0
    9.5293   -3.4965    0.0000 C   0  0
   10.4005   -1.4981    0.0000 C   0  0
    9.1031   -0.7436    0.0000 N   0  0
    7.8028   -1.4930    0.0000 C   0  0
    7.8007   -2.9938    0.0000 C   0  0  1  0  0  0
    8.6661   -3.4948    0.0000 O   0  0
    6.5003   -3.7432    0.0000 C   0  0  2  0  0  0
    5.1998   -2.9940    0.0000 C   0  0
    3.9003   -3.7449    0.0000 C   0  0
    3.8977   -5.2449    0.0000 C   0  0
    2.5973   -5.9927    0.0000 C   0  0
    1.2996   -5.2404    0.0000 C   0  0
    1.3022   -3.7404    0.0000 C   0  0
    2.6025   -2.9927    0.0000 C   0  0
    6.4982   -5.2440    0.0000 N   0  0
    5.1978   -5.9934    0.0000 C   0  0
    4.3324   -5.4925    0.0000 O   0  0
    5.1957   -7.4943    0.0000 C   0  0
    6.4952   -8.2434    0.0000 C   0  0
    6.4962   -9.7434    0.0000 C   0  0
    7.7957  -10.4926    0.0000 C   0  0
    7.7966  -11.9926    0.0000 C   0  0
    6.4981  -12.7434    0.0000 C   0  0
    6.4990  -14.2434    0.0000 O   0  0
    5.1986  -11.9943    0.0000 C   0  0
    5.1976  -10.4943    0.0000 C   0  0
    3.8981   -9.7451    0.0000 O   0  0
    3.8972   -8.2451    0.0000 C   0  0
    2.5976   -7.4959    0.0000 O   0  0
    9.1053    0.7572    0.0000 S   0  0
    7.8053    0.0088    0.0000 O   0  0
    7.8071    1.5086    0.0000 O   0  0
   10.4056    1.5066    0.0000 C   0  0
   10.4068    3.0066    0.0000 C   0  0
   11.7064    3.7556    0.0000 C   0  0
   13.0049    3.0045    0.0000 C   0  0
   14.3068    3.7513    0.0000 N   0  3
   15.6041    2.9984    0.0000 O   0  0
   14.3106    5.2512    0.0000 O   0  5
   13.0037    1.5045    0.0000 C   0  0
   11.7041    0.7556    0.0000 C   0  0
  1  2  1  0
  2  3  1  0
  2  4  1  0
  4  5  1  0
  5  6  1  0
  6  7  1  0
  7  8  1  1
  7  9  1  0
  9 10  1  1
 10 11  1  0
 11 12  2  0
 12 13  1  0
 13 14  2  0
 14 15  1  0
 15 16  2  0
 16 11  1  0
  9 17  1  0
 17 18  1  0
 18 19  2  0
 18 20  1  0
 20 21  2  0
 21 22  1  0
 22 23  2  0
 23 24  1  0
 24 25  2  0
 25 26  1  0
 25 27  1  0
 27 28  2  0
 28 22  1  0
 28 29  1  0
 29 30  1  0
 30 20  1  0
 30 31  2  0
  5 32  1  0
 32 33  2  0
 32 34  2  0
 32 35  1  0
 35 36  2  0
 36 37  1  0
 37 38  2  0
 38 39  1  0
 39 40  2  0
 39 41  1  0
 38 42  1  0
 42 43  2  0
 43 35  1  0
M  CHG  2  39   1  41  -1
M  END
> <Smiles>
CC(C)CN(C[C@@H](O)[C@H](Cc1ccccc1)NC(=O)c1cc2ccc(O)cc2oc1=O)S(=O)(=O)c1ccc([N+](=O)[O-])cc1

> <IC50_uM>
0.1887

> <pIC50>
6.7242281

> <Activity>
1

$$$$

  SciTegic10102310092D

 29 31  0  0  0  0            999 V2000
    3.1676   -7.5606    0.0000 C   0  0
    1.7006   -7.2475    0.0000 C   0  0
    0.6960   -8.3614    0.0000 C   0  0
   -0.7710   -8.0483    0.0000 C   0  0
   -1.7756   -9.1622    0.0000 C   0  0
   -1.2333   -6.6213    0.0000 C   0  0
   -0.2287   -5.5075    0.0000 C   0  0
   -0.6913   -4.0797    0.0000 S   0  0
   -2.1584   -3.7671    0.0000 O   0  0
   -1.6957   -5.1937    0.0000 O   0  0
    0.3114   -2.9665    0.0000 C   0  0
    1.8032   -3.1233    0.0000 C   0  0
    2.5551   -4.4192    0.0000 C   0  0
    1.8074   -5.7196    0.0000 O   0  0
    4.0559   -4.4171    0.0000 N   0  0
    4.8090   -5.7153    0.0000 C   0  0  3  0  0  0
    4.0613   -7.0156    0.0000 C   0  0
    6.3098   -5.7131    0.0000 C   0  0
    7.0575   -4.4127    0.0000 N   0  0
    7.0625   -7.0106    0.0000 O   0  0
    2.4133   -1.7530    0.0000 N   0  0
    1.2990   -0.7500    0.0000 C   0  0
    1.2990    0.7500    0.0000 C   0  0
    0.0000    1.5000    0.0000 C   0  0
   -1.2990    0.7500    0.0000 C   0  0
   -2.5981    1.5000    0.0000 Cl  0  0
   -1.2990   -0.7500    0.0000 C   0  0
    0.0000   -1.5000    0.0000 C   0  0
    1.2383   -5.8206    0.0000 C   0  0
  1  2  1  0
  2  3  2  0
  3  4  1  0
  4  5  1  0
  4  6  2  0
  6  7  1  0
  7  8  1  0
  8  9  2  0
  8 10  2  0
  8 11  1  0
 11 12  2  0
 12 13  1  0
 13 14  2  0
 13 15  1  0
 15 16  1  0
 16 17  1  4
 16 18  1  0
 18 19  1  0
 18 20  2  0
 12 21  1  0
 21 22  1  0
 22 23  2  0
 23 24  1  0
 24 25  2  0
 25 26  1  0
 25 27  1  0
 27 28  2  0
 28 11  1  0
 28 22  1  0
  7 29  2  0
 29  2  1  0
M  END
> <Smiles>
Cc1cc(C)cc(S(=O)(=O)c2c(C(=O)NC(C)C(N)=O)[nH]c3ccc(Cl)cc23)c1

> <IC50_uM>
0.19

> <pIC50>
6.721246399

> <Activity>
1

$$$$

  SciTegic10102310092D

 28 30  0  0  0  0            999 V2000
    2.5951   -3.0031    0.0000 C   0  0
    2.5973   -1.5031    0.0000 C   0  0
    1.2990   -0.7500    0.0000 C   0  0
    1.2990    0.7500    0.0000 C   0  0
    2.5972    1.5031    0.0000 C   0  0
    3.8976    0.7554    0.0000 O   0  0
    2.5951    3.0039    0.0000 C   0  0
    3.8915    3.7585    0.0000 C   0  0
    3.8863    5.2585    0.0000 C   0  0
    2.5847    6.0040    0.0000 C   0  0
    1.2883    5.2495    0.0000 C   0  0
   -0.0134    5.9950    0.0000 F   0  0
    1.2934    3.7495    0.0000 C   0  0
    0.0000    1.5000    0.0000 N   0  0
   -1.2990    0.7500    0.0000 C   0  0
   -2.6003    1.4977    0.0000 S   0  0
   -3.8990    0.7455    0.0000 C   0  0
   -5.2003    1.4932    0.0000 C   0  0
   -6.4994    0.7432    0.0000 C   0  0
   -7.7985    1.4932    0.0000 C   0  0
   -7.7985    2.9932    0.0000 C   0  0
   -9.0967    3.7462    0.0000 O   0  0
   -9.0947    5.2462    0.0000 C   0  0
   -6.4995    3.7432    0.0000 C   0  0
   -5.2004    2.9933    0.0000 C   0  0
   -1.2990   -0.7500    0.0000 N   0  0
    0.0000   -1.5000    0.0000 C   0  0
    0.0000   -3.0000    0.0000 O   0  0
  1  2  1  0
  2  3  1  0
  3  4  2  0
  4  5  1  0
  5  6  2  0
  5  7  1  0
  7  8  2  0
  8  9  1  0
  9 10  2  0
 10 11  1  0
 11 12  1  0
 11 13  2  0
 13  7  1  0
  4 14  1  0
 14 15  2  0
 15 16  1  0
 16 17  1  0
 17 18  1  0
 18 19  2  0
 19 20  1  0
 20 21  2  0
 21 22  1  0
 22 23  1  0
 21 24  1  0
 24 25  2  0
 25 18  1  0
 15 26  1  0
 26 27  1  0
 27  3  1  0
 27 28  2  0
M  END
> <Smiles>
CCc1c(C(=O)c2cccc(F)c2)nc(SCc2ccc(OC)cc2)[nH]c1=O

> <IC50_uM>
0.19

> <pIC50>
6.721246399

> <Activity>
1

$$$$

  SciTegic10102310092D

 21 22  0  0  0  0            999 V2000
    3.9511   -0.8815    0.0000 O   0  0
    2.5987   -1.5004    0.0000 C   0  0  3  0  0  0
    1.2990   -0.7500    0.0000 N   0  0
    1.2990    0.7500    0.0000 C   0  0
    0.0000    1.5000    0.0000 C   0  0
    0.0000    3.0000    0.0000 C   0  0
   -1.2990    0.7500    0.0000 C   0  0
   -2.5981    1.5000    0.0000 O   0  0
   -1.2990   -0.7500    0.0000 N   0  0
    0.0000   -1.5000    0.0000 C   0  0
    0.0000   -3.0000    0.0000 O   0  0
    2.7343   -2.9815    0.0000 C   0  0
    4.2010   -3.2956    0.0000 C   0  0  3  0  0  0
    4.8054   -4.6666    0.0000 N   0  0
    3.9195   -5.8781    0.0000 C   0  0
    2.4283   -5.7163    0.0000 N   0  0
    4.5250   -7.2514    0.0000 N   0  0
    3.6396   -8.4623    0.0000 O   0  0
    4.9531   -1.9978    0.0000 C   0  0  3  0  0  0
    6.4430   -1.8405    0.0000 C   0  0
    7.0533   -0.4702    0.0000 O   0  0
  1  2  1  0
  2  3  1  4
  3  4  1  0
  4  5  2  0
  5  6  1  0
  5  7  1  0
  7  8  2  0
  7  9  1  0
  9 10  1  0
 10  3  1  0
 10 11  2  0
  2 12  1  0
 12 13  1  0
 13 14  1  4
 14 15  1  0
 15 16  2  0
 15 17  1  0
 17 18  1  0
 13 19  1  0
 19  1  1  0
 19 20  1  4
 20 21  1  0
M  END
> <Smiles>
O1C(N2C=C(C)C(=O)NC2=O)CC(NC(=N)NO)C1CO

> <IC50_uM>
0.190546072

> <pIC50>
6.72

> <Activity>
1

$$$$

  SciTegic10102310092D

 32 34  0  0  0  0            999 V2000
    3.1676   -7.5606    0.0000 C   0  0
    1.7006   -7.2475    0.0000 C   0  0
    0.6960   -8.3614    0.0000 C   0  0
   -0.7710   -8.0483    0.0000 C   0  0
   -1.7756   -9.1622    0.0000 C   0  0
   -1.2333   -6.6213    0.0000 C   0  0
   -0.2287   -5.5075    0.0000 C   0  0
   -0.6913   -4.0797    0.0000 S   0  0
   -2.1584   -3.7671    0.0000 O   0  0
   -1.6957   -5.1937    0.0000 O   0  0
    0.3114   -2.9665    0.0000 C   0  0
    1.8032   -3.1233    0.0000 C   0  0
    2.5551   -4.4192    0.0000 C   0  0
    1.8074   -5.7196    0.0000 O   0  0
    4.0559   -4.4171    0.0000 N   0  0
    4.8090   -5.7153    0.0000 C   0  0  3  0  0  0
    4.0613   -7.0156    0.0000 C   0  0
    6.3098   -5.7131    0.0000 C   0  0
    7.0629   -7.0113    0.0000 C   0  0
    6.3152   -8.3116    0.0000 N   0  0
    8.5629   -7.0091    0.0000 O   0  0
    2.4133   -1.7530    0.0000 N   0  0
    1.2990   -0.7500    0.0000 C   0  0
    1.2990    0.7500    0.0000 C   0  0
    0.0000    1.5000    0.0000 C   0  0
   -1.2990    0.7500    0.0000 C   0  0
   -2.6003    1.4977    0.0000 N   0  3
   -3.8983    0.7459    0.0000 O   0  0
   -2.6030    2.9977    0.0000 O   0  5
   -1.2990   -0.7500    0.0000 C   0  0
    0.0000   -1.5000    0.0000 C   0  0
    1.2383   -5.8206    0.0000 C   0  0
  1  2  1  0
  2  3  2  0
  3  4  1  0
  4  5  1  0
  4  6  2  0
  6  7  1  0
  7  8  1  0
  8  9  2  0
  8 10  2  0
  8 11  1  0
 11 12  2  0
 12 13  1  0
 13 14  2  0
 13 15  1  0
 15 16  1  0
 16 17  1  4
 16 18  1  0
 18 19  1  0
 19 20  1  0
 19 21  2  0
 12 22  1  0
 22 23  1  0
 23 24  2  0
 24 25  1  0
 25 26  2  0
 26 27  1  0
 27 28  2  0
 27 29  1  0
 26 30  1  0
 30 31  2  0
 31 11  1  0
 31 23  1  0
  7 32  2  0
 32  2  1  0
M  CHG  2  27   1  29  -1
M  END
> <Smiles>
Cc1cc(C)cc(S(=O)(=O)c2c(C(=O)NC(C)CC(N)=O)[nH]c3ccc([N+](=O)[O-])cc23)c1

> <IC50_uM>
0.191

> <pIC50>
6.718966633

> <Activity>
1

$$$$

  SciTegic10102310092D

 34 37  0  0  0  0            999 V2000
    2.5981   -1.5000    0.0000 C   0  0
    1.2990   -0.7500    0.0000 C   0  0
    1.2990    0.7500    0.0000 C   0  0
    0.0000    1.5000    0.0000 C   0  0
    0.0000    3.0008    0.0000 C   0  0
    0.0000    4.5008    0.0000 N   0  0
   -1.2990    0.7500    0.0000 C   0  0
   -1.2990   -0.7500    0.0000 C   0  0
   -2.5981   -1.5000    0.0000 C   0  0
    0.0000   -1.5000    0.0000 C   0  0
    0.0031   -3.0008    0.0000 O   0  0
    1.3039   -3.7494    0.0000 C   0  0
    1.3092   -5.2494    0.0000 C   0  0
    2.6108   -5.9949    0.0000 C   0  0
    3.9073   -5.2404    0.0000 N   0  0
    3.9021   -3.7404    0.0000 C   0  0
    5.1977   -2.9829    0.0000 N   0  0
    5.1903   -1.4820    0.0000 C   0  0
    6.4841   -0.7230    0.0000 C   0  0
    6.4738    0.7770    0.0000 C   0  0
    5.1696    1.5180    0.0000 N   0  0
    5.1592    3.0187    0.0000 C   0  0
    6.4518    3.7798    0.0000 C   0  0
    6.4390    5.2798    0.0000 C   0  0
    5.1337    6.0187    0.0000 C   0  0
    5.1209    7.5186    0.0000 Cl  0  0
    3.8411    5.2577    0.0000 C   0  0
    2.5334    5.9943    0.0000 C   0  0
    2.5181    7.4942    0.0000 N   0  0
    1.2419    5.2315    0.0000 O   0  0
    3.8538    3.7577    0.0000 C   0  0
    3.8757    0.7590    0.0000 C   0  0
    3.8861   -0.7410    0.0000 C   0  0
    2.6004   -2.9949    0.0000 N   0  0
  1  2  1  0
  2  3  2  0
  3  4  1  0
  4  5  1  0
  5  6  3  0
  4  7  2  0
  7  8  1  0
  8  9  1  0
  8 10  2  0
 10  2  1  0
 10 11  1  0
 11 12  1  0
 12 13  2  0
 13 14  1  0
 14 15  2  0
 15 16  1  0
 16 17  1  0
 17 18  1  0
 18 19  1  0
 19 20  1  0
 20 21  1  0
 21 22  1  0
 22 23  2  0
 23 24  1  0
 24 25  2  0
 25 26  1  0
 25 27  1  0
 27 28  1  0
 28 29  1  0
 28 30  2  0
 27 31  2  0
 31 22  1  0
 21 32  1  0
 32 33  1  0
 33 18  1  0
 16 34  2  0
 34 12  1  0
M  END
> <Smiles>
Cc1cc(C#N)cc(C)c1Oc1ccnc(NC2CCN(c3ccc(Cl)c(C(N)=O)c3)CC2)n1

> <IC50_uM>
0.192

> <pIC50>
6.716698771

> <Activity>
1

$$$$

  SciTegic10102310092D

 29 31  0  0  0  0            999 V2000
    2.5983   -3.0004    0.0000 N   0  0
    2.5988   -1.5004    0.0000 S   0  0
    3.8983   -0.7512    0.0000 O   0  0
    3.8975   -2.2510    0.0000 O   0  0
    1.2990   -0.7500    0.0000 C   0  0
    1.2990    0.7500    0.0000 C   0  0
    0.0000    1.5000    0.0000 C   0  0
   -1.2990    0.7500    0.0000 C   0  0
   -2.5973    1.5031    0.0000 N   0  0
   -2.5951    3.0039    0.0000 C   0  0
   -1.2948    3.7516    0.0000 O   0  0
   -3.8933    3.7570    0.0000 C   0  0
   -3.8912    5.2578    0.0000 O   0  0
   -5.1894    6.0109    0.0000 C   0  0
   -5.1895    7.5109    0.0000 C   0  0
   -6.4885    8.2609    0.0000 C   0  0
   -7.7876    7.5110    0.0000 C   0  0
   -7.7876    6.0110    0.0000 C   0  0
   -9.0858    5.2579    0.0000 O   0  0
   -9.0837    3.7571    0.0000 C   0  0
  -10.3801    3.0025    0.0000 C   0  0
  -10.3750    1.5025    0.0000 C   0  0
   -9.0734    0.7570    0.0000 C   0  0
   -7.7769    1.5115    0.0000 C   0  0
   -7.7821    3.0115    0.0000 C   0  0
   -6.4886    5.2609    0.0000 C   0  0
   -1.2990   -0.7500    0.0000 C   0  0
   -2.5981   -1.5000    0.0000 Cl  0  0
    0.0000   -1.5000    0.0000 C   0  0
  1  2  1  0
  2  3  2  0
  2  4  2  0
  2  5  1  0
  5  6  2  0
  6  7  1  0
  7  8  2  0
  8  9  1  0
  9 10  1  0
 10 11  2  0
 10 12  1  0
 12 13  1  0
 13 14  1  0
 14 15  2  0
 15 16  1  0
 16 17  2  0
 17 18  1  0
 18 19  1  0
 19 20  1  0
 20 21  2  0
 21 22  1  0
 22 23  2  0
 23 24  1  0
 24 25  2  0
 25 20  1  0
 18 26  2  0
 26 14  1  0
  8 27  1  0
 27 28  1  0
 27 29  2  0
 29  5  1  0
M  END
> <Smiles>
NS(=O)(=O)c1ccc(NC(=O)COc2cccc(Oc3ccccc3)c2)c(Cl)c1

> <IC50_uM>
0.1924

> <pIC50>
6.715794932

> <Activity>
1

$$$$

  SciTegic10102310092D

 30 32  0  0  0  0            999 V2000
   14.2905    0.7816    0.0000 N   0  0
   12.9891    1.5275    0.0000 S   0  0
   12.9848    3.0275    0.0000 O   0  0
   14.2859    2.2814    0.0000 O   0  0
   11.6919    0.7726    0.0000 C   0  0
   10.3903    1.5181    0.0000 C   0  0
    9.0939    0.7636    0.0000 C   0  0
    9.0990   -0.7364    0.0000 C   0  0
    7.8003   -1.4887    0.0000 N   0  0
    6.4990   -0.7409    0.0000 C   0  0
    6.4964    0.7591    0.0000 O   0  0
    5.2003   -1.4932    0.0000 C   0  0
    3.8990   -0.7455    0.0000 C   0  0
    2.6003   -1.4977    0.0000 C   0  0
    2.6030   -2.9977    0.0000 O   0  0
    1.2990   -0.7500    0.0000 N   0  0
    1.2990    0.7500    0.0000 C   0  0
    0.0000    1.5000    0.0000 C   0  0
   -1.2990    0.7500    0.0000 C   0  0
   -1.2990   -0.7500    0.0000 C   0  0
   -2.5981   -1.5000    0.0000 C   0  0
   -2.5981   -3.0000    0.0000 C   0  0
   -3.8971   -3.7500    0.0000 Cl  0  0
   -1.2990   -3.7500    0.0000 C   0  0
    0.0000   -3.0000    0.0000 C   0  0
    1.2991   -3.7500    0.0000 Cl  0  0
    0.0000   -1.5000    0.0000 C   0  0
   10.4007   -1.4818    0.0000 C   0  0
   10.4059   -2.9818    0.0000 Cl  0  0
   11.6971   -0.7274    0.0000 C   0  0
  1  2  1  0
  2  3  2  0
  2  4  2  0
  2  5  1  0
  5  6  2  0
  6  7  1  0
  7  8  2  0
  8  9  1  0
  9 10  1  0
 10 11  2  0
 10 12  1  0
 12 13  1  0
 13 14  1  0
 14 15  2  0
 14 16  1  0
 16 17  1  0
 17 18  1  0
 18 19  1  0
 19 20  1  0
 20 21  2  0
 21 22  1  0
 22 23  1  0
 22 24  2  0
 24 25  1  0
 25 26  1  0
 25 27  2  0
 27 20  1  0
 27 16  1  0
  8 28  1  0
 28 29  1  0
 28 30  2  0
 30  5  1  0
M  END
> <Smiles>
NS(=O)(=O)c1ccc(NC(=O)CCC(=O)N2CCCc3cc(Cl)cc(Cl)c32)c(Cl)c1

> <IC50_uM>
0.194

> <pIC50>
6.71219827

> <Activity>
1

$$$$

  SciTegic10102310092D

 34 37  0  0  0  0            999 V2000
    2.5981   -1.5000    0.0000 C   0  0
    1.2990   -0.7500    0.0000 C   0  0
    1.2990    0.7500    0.0000 C   0  0
    0.0000    1.5000    0.0000 C   0  0
    0.0000    3.0008    0.0000 C   0  0
    0.0000    4.5008    0.0000 N   0  0
   -1.2990    0.7500    0.0000 C   0  0
   -1.2990   -0.7500    0.0000 C   0  0
   -2.5981   -1.5000    0.0000 C   0  0
    0.0000   -1.5000    0.0000 C   0  0
    0.0031   -3.0008    0.0000 O   0  0
    1.3039   -3.7494    0.0000 C   0  0
    1.3092   -5.2494    0.0000 C   0  0
    2.6108   -5.9949    0.0000 C   0  0
    3.9073   -5.2404    0.0000 N   0  0
    3.9021   -3.7404    0.0000 C   0  0
    5.1977   -2.9829    0.0000 N   0  0
    5.1903   -1.4820    0.0000 C   0  0
    6.4841   -0.7230    0.0000 C   0  0
    6.4738    0.7770    0.0000 C   0  0
    5.1696    1.5180    0.0000 N   0  0
    5.1592    3.0187    0.0000 C   0  0
    6.4518    3.7798    0.0000 C   0  0
    6.4390    5.2798    0.0000 C   0  0
    5.1337    6.0187    0.0000 C   0  0
    3.8411    5.2577    0.0000 C   0  0
    2.5350    5.9970    0.0000 S   0  0
    1.2426    5.2356    0.0000 N   0  0
    2.5213    7.4969    0.0000 O   0  0
    1.2292    6.7353    0.0000 O   0  0
    3.8538    3.7577    0.0000 C   0  0
    3.8757    0.7590    0.0000 C   0  0
    3.8861   -0.7410    0.0000 C   0  0
    2.6004   -2.9949    0.0000 N   0  0
  1  2  1  0
  2  3  2  0
  3  4  1  0
  4  5  1  0
  5  6  3  0
  4  7  2  0
  7  8  1  0
  8  9  1  0
  8 10  2  0
 10  2  1  0
 10 11  1  0
 11 12  1  0
 12 13  2  0
 13 14  1  0
 14 15  2  0
 15 16  1  0
 16 17  1  0
 17 18  1  0
 18 19  1  0
 19 20  1  0
 20 21  1  0
 21 22  1  0
 22 23  2  0
 23 24  1  0
 24 25  2  0
 25 26  1  0
 26 27  1  0
 27 28  1  0
 27 29  2  0
 27 30  2  0
 26 31  2  0
 31 22  1  0
 21 32  1  0
 32 33  1  0
 33 18  1  0
 16 34  2  0
 34 12  1  0
M  END
> <Smiles>
Cc1cc(C#N)cc(C)c1Oc1ccnc(NC2CCN(c3cccc(S(N)(=O)=O)c3)CC2)n1

> <IC50_uM>
0.194

> <pIC50>
6.71219827

> <Activity>
1

$$$$

  SciTegic10102310092D

 19 20  0  0  0  0            999 V2000
    1.6852   -0.3846    0.0000 C   0  0
    3.1497   -0.7220    0.0000 C   0  0
    3.5900   -2.1568    0.0000 C   0  0
    5.0513   -2.4957    0.0000 C   0  0
    5.4884   -3.9306    0.0000 C   0  0
    4.4644   -5.0266    0.0000 C   0  0
    3.0032   -4.6878    0.0000 C   0  0
    2.5660   -3.2530    0.0000 C   0  0
    4.1718    0.3758    0.0000 O   0  0
    1.3514    1.0778    0.0000 S   0  0
    2.7306    0.4879    0.0000 O   0  0
    1.0834    2.5536    0.0000 O   0  0
    0.0000    1.7286    0.0000 O   0  0
   -1.3515    1.0777    0.0000 C   0  0
   -1.6852   -0.3847    0.0000 C   0  0
   -0.7500   -1.5574    0.0000 O   0  0
    0.7500   -1.5574    0.0000 S   0  0
    2.2485   -1.6243    0.0000 O   0  0
   -0.1318   -2.7708    0.0000 O   0  0
  1  2  1  0
  2  3  1  0
  3  4  2  0
  4  5  1  0
  5  6  2  0
  6  7  1  0
  7  8  2  0
  8  3  1  0
  2  9  2  0
  1 10  1  0
 10 11  2  0
 10 12  2  0
 10 13  1  0
 13 14  1  0
 14 15  1  0
 15 16  1  0
 16 17  1  0
 17  1  1  0
 17 18  2  0
 17 19  2  0
M  END
> <Smiles>
C1(C(c2ccccc2)=O)S(=O)(=O)OCCOS1(=O)=O

> <IC50_uM>
0.19498446

> <pIC50>
6.71

> <Activity>
1

$$$$

  SciTegic10102310092D

 46 51  0  0  0  0            999 V2000
    2.5923    1.5001    0.0000 C   0  0
    3.8939    0.7546    0.0000 C   0  0
    5.1903    1.5091    0.0000 C   0  0
    6.4920    0.7636    0.0000 C   0  0
    7.7891    1.5185    0.0000 C   0  0
    9.0856    2.2729    0.0000 N   0  0
    6.4972   -0.7364    0.0000 C   0  0
    5.2007   -1.4909    0.0000 C   0  0
    5.2059   -2.9909    0.0000 C   0  0
    3.8990   -0.7455    0.0000 C   0  0
    2.6003   -1.4977    0.0000 O   0  0
    1.2990   -0.7500    0.0000 C   0  0
    1.2990    0.7500    0.0000 N   0  0
    0.0000    1.5000    0.0000 C   0  0
   -0.0031    3.0008    0.0000 N   0  0
   -1.3039    3.7494    0.0000 C   0  0
   -1.3092    5.2494    0.0000 C   0  0
   -2.6108    5.9949    0.0000 C   0  0
   -3.9073    5.2404    0.0000 N   0  0
   -5.2112    5.9836    0.0000 C   0  0
   -6.5072    5.2269    0.0000 C   0  0
   -7.8115    5.9678    0.0000 C   0  0
   -9.1053    5.2088    0.0000 C   0  0
   -9.0949    3.7089    0.0000 C   0  0
  -10.3879    2.9468    0.0000 C   0  0
  -11.6934    3.6855    0.0000 N   0  0
  -10.3754    1.4469    0.0000 O   0  0
   -7.7907    2.9679    0.0000 C   0  0
   -6.4969    3.7269    0.0000 C   0  0
   -3.9021    3.7404    0.0000 C   0  0
   -2.6005    2.9949    0.0000 C   0  0
   -1.2990    0.7500    0.0000 N   0  0
   -1.2990   -0.7500    0.0000 C   0  0
   -2.4133   -1.7530    0.0000 C   0  0
   -1.8032   -3.1233    0.0000 C   0  0
   -0.3114   -2.9665    0.0000 N   0  0
    0.6913   -4.0797    0.0000 S   0  0
    2.1584   -3.7671    0.0000 O   0  0
    1.1543   -2.6529    0.0000 O   0  0
    0.2287   -5.5075    0.0000 C   0  0
    1.2334   -6.6213    0.0000 C   0  0
    0.7710   -8.0483    0.0000 C   0  0
   -0.6959   -8.3614    0.0000 C   0  0
   -1.7006   -7.2475    0.0000 C   0  0
   -1.2382   -5.8206    0.0000 C   0  0
    0.0000   -1.5000    0.0000 C   0  0
  1  2  1  0
  2  3  2  0
  3  4  1  0
  4  5  1  0
  5  6  3  0
  4  7  2  0
  7  8  1  0
  8  9  1  0
  8 10  2  0
 10  2  1  0
 10 11  1  0
 11 12  1  0
 12 13  2  0
 13 14  1  0
 14 15  1  0
 15 16  1  0
 16 17  1  0
 17 18  1  0
 18 19  1  0
 19 20  1  0
 20 21  1  0
 21 22  2  0
 22 23  1  0
 23 24  2  0
 24 25  1  0
 25 26  1  0
 25 27  2  0
 24 28  1  0
 28 29  2  0
 29 21  1  0
 19 30  1  0
 30 31  1  0
 31 16  1  0
 14 32  2  0
 32 33  1  0
 33 34  1  0
 34 35  2  0
 35 36  1  0
 36 37  1  0
 37 38  2  0
 37 39  2  0
 37 40  1  0
 40 41  2  0
 41 42  1  0
 42 43  2  0
 43 44  1  0
 44 45  2  0
 45 40  1  0
 36 46  1  0
 46 12  1  0
 46 33  2  0
M  END
> <Smiles>
Cc1cc(C#N)cc(C)c1Oc1nc(NC2CCN(Cc3ccc(C(N)=O)cc3)CC2)nc2ccn(S(=O)(=O)c3ccccc3)c12

> <IC50_uM>
0.195

> <pIC50>
6.709965389

> <Activity>
1

$$$$

  SciTegic10102310092D

 26 28  0  0  0  0            999 V2000
    2.5951   -3.0031    0.0000 C   0  0
    2.5973   -1.5031    0.0000 C   0  0
    1.2990   -0.7500    0.0000 C   0  0
    1.2990    0.7500    0.0000 C   0  0
    2.5972    1.5031    0.0000 O   0  0
    2.5951    3.0039    0.0000 C   0  0
    3.8915    3.7585    0.0000 C   0  0
    3.8863    5.2585    0.0000 C   0  0
    5.1827    6.0130    0.0000 C   0  0
    2.5847    6.0040    0.0000 C   0  0
    1.2883    5.2495    0.0000 C   0  0
   -0.0134    5.9950    0.0000 C   0  0
    1.2934    3.7495    0.0000 C   0  0
    0.0000    1.5000    0.0000 N   0  0
   -0.0031    3.0008    0.0000 C   0  0
   -1.3039    3.7494    0.0000 C   0  0
   -1.3092    5.2494    0.0000 C   0  0
   -2.6108    5.9949    0.0000 C   0  0
   -3.9073    5.2404    0.0000 C   0  0
   -3.9021    3.7404    0.0000 C   0  0
   -2.6005    2.9949    0.0000 C   0  0
   -1.2990    0.7500    0.0000 C   0  0
   -2.5981    1.5000    0.0000 O   0  0
   -1.2990   -0.7500    0.0000 N   0  0
    0.0000   -1.5000    0.0000 C   0  0
    0.0000   -3.0000    0.0000 O   0  0
  1  2  1  0
  2  3  1  0
  3  4  2  0
  4  5  1  0
  5  6  1  0
  6  7  2  0
  7  8  1  0
  8  9  1  0
  8 10  2  0
 10 11  1  0
 11 12  1  0
 11 13  2  0
 13  6  1  0
  4 14  1  0
 14 15  1  0
 15 16  1  0
 16 17  2  0
 17 18  1  0
 18 19  2  0
 19 20  1  0
 20 21  2  0
 21 16  1  0
 14 22  1  0
 22 23  2  0
 22 24  1  0
 24 25  1  0
 25  3  1  0
 25 26  2  0
M  END
> <Smiles>
CCc1c(Oc2cc(C)cc(C)c2)n(Cc2ccccc2)c(=O)[nH]c1=O

> <IC50_uM>
0.197

> <pIC50>
6.705533774

> <Activity>
1

$$$$

  SciTegic10102310092D

 17 17  0  0  0  0            999 V2000
    1.2990   -0.7500    0.0000 C   0  0
    2.5981   -1.5000    0.0000 Cl  0  0
    1.2990    0.7500    0.0000 C   0  0
    2.5981    1.5000    0.0000 Cl  0  0
    0.0000    1.5000    0.0000 C   0  0
   -1.2990    0.7500    0.0000 C   0  0
   -2.6003    1.4977    0.0000 C   0  0
   -3.8990    0.7455    0.0000 C   0  0
   -5.2003    1.4932    0.0000 C   0  0
   -6.4990    0.7409    0.0000 N   0  0
   -7.8003    1.4887    0.0000 C   0  0
   -9.0983    0.7368    0.0000 C   0  0
   -6.4995   -0.7599    0.0000 C   0  0
   -7.7983   -1.5103    0.0000 C   0  0
   -2.6030    2.9977    0.0000 O   0  0
   -1.2990   -0.7500    0.0000 C   0  0
    0.0000   -1.5000    0.0000 C   0  0
  1  2  1  0
  1  3  2  0
  3  4  1  0
  3  5  1  0
  5  6  2  0
  6  7  1  0
  7  8  1  0
  8  9  1  0
  9 10  1  0
 10 11  1  0
 11 12  1  0
 10 13  1  0
 13 14  1  0
  7 15  2  0
  6 16  1  0
 16 17  2  0
 17  1  1  0
M  END
> <Smiles>
c1(Cl)c(Cl)cc(C(CCN(CC)CC)=O)cc1

> <IC50_uM>
0.199526231

> <pIC50>
6.700000001

> <Activity>
1

$$$$

  SciTegic10102310092D

 27 30  0  0  0  0            999 V2000
    1.8073   -5.7196    0.0000 O   0  0
    2.5551   -4.4192    0.0000 C   0  0
    4.0559   -4.4171    0.0000 N   0  0
    4.8090   -5.7153    0.0000 C   0  0
    6.3098   -5.7131    0.0000 C   0  0
    7.1739   -6.9236    0.0000 N   0  0
    8.5988   -6.4551    0.0000 C   0  0
    8.5936   -4.9551    0.0000 C   0  0
    7.1654   -4.4966    0.0000 S   0  0
    1.8032   -3.1233    0.0000 C   0  0
    2.4133   -1.7530    0.0000 N   0  0
    1.2990   -0.7500    0.0000 C   0  0
    1.2990    0.7500    0.0000 C   0  0
    0.0000    1.5000    0.0000 C   0  0
   -1.2990    0.7500    0.0000 C   0  0
   -2.5981    1.5000    0.0000 Br  0  0
   -1.2990   -0.7500    0.0000 C   0  0
    0.0000   -1.5000    0.0000 C   0  0
    0.3114   -2.9665    0.0000 C   0  0
   -0.6913   -4.0797    0.0000 S   0  0
   -0.2276   -5.5062    0.0000 O   0  0
    0.7759   -4.3916    0.0000 O   0  0
   -2.1595   -3.7683    0.0000 N   0  0
   -3.2523   -4.7770    0.0000 C   0  0
   -4.5516   -4.0276    0.0000 C   0  0
   -4.2404   -2.5602    0.0000 C   0  0
   -2.7487   -2.4028    0.0000 C   0  0
  1  2  2  0
  2  3  1  0
  3  4  1  0
  4  5  1  0
  5  6  2  0
  6  7  1  0
  7  8  2  0
  8  9  1  0
  9  5  1  0
  2 10  1  0
 10 11  1  0
 11 12  1  0
 12 13  2  0
 13 14  1  0
 14 15  2  0
 15 16  1  0
 15 17  1  0
 17 18  2  0
 18 12  1  0
 18 19  1  0
 19 10  2  0
 19 20  1  0
 20 21  2  0
 20 22  2  0
 20 23  1  0
 23 24  1  0
 24 25  1  0
 25 26  1  0
 26 27  1  0
 27 23  1  0
M  END
> <Smiles>
O=C(NCc1nccs1)c1[nH]c2ccc(Br)cc2c1S(=O)(=O)N1CCCC1

> <IC50_uM>
0.2

> <pIC50>
6.698970004

> <Activity>
1

$$$$

  SciTegic10102310092D

 26 29  0  0  0  0            999 V2000
    0.7016    6.4002    0.0000 C   0  0
    1.1910    4.9823    0.0000 C   0  0
    2.6643    4.6961    0.0000 O   0  0
    3.1539    3.2774    0.0000 C   0  0
    4.6260    2.9892    0.0000 C   0  0
    5.1124    1.5702    0.0000 C   0  0
    4.1268    0.4395    0.0000 C   0  0
    2.6548    0.7277    0.0000 C   0  0
    1.6852   -0.3846    0.0000 C   0  0  3  0  0  0
    2.0759   -1.8072    0.0000 C   0  0
    3.5145   -2.2320    0.0000 C   0  0
    1.3514    1.0778    0.0000 O   0  0
    0.0000    1.7286    0.0000 C   0  0
    0.1115    3.2255    0.0000 C   0  0
   -1.1278    4.0705    0.0000 C   0  0
   -2.4793    3.4196    0.0000 C   0  0
   -2.5914    1.9238    0.0000 C   0  0
   -1.3515    1.0777    0.0000 C   0  0
   -1.6852   -0.3847    0.0000 N   0  0
   -3.0899   -0.9120    0.0000 C   0  0
   -3.0226   -2.4105    0.0000 C   0  0
   -1.5767   -2.8095    0.0000 C   0  0
   -0.7500   -1.5574    0.0000 C   0  0
    0.7500   -1.5574    0.0000 C   0  0
    1.4008   -2.9088    0.0000 O   0  0
    2.1683    2.1466    0.0000 C   0  0
  1  2  1  0
  2  3  1  0
  3  4  1  0
  4  5  2  0
  5  6  1  0
  6  7  2  0
  7  8  1  0
  8  9  1  0
  9 10  1  4
 10 11  1  0
  9 12  1  0
 12 13  1  0
 13 14  2  0
 14 15  1  0
 15 16  2  0
 16 17  1  0
 17 18  2  0
 18 13  1  0
 18 19  1  0
 19 20  1  0
 20 21  2  0
 21 22  1  0
 22 23  2  0
 23 19  1  0
 23 24  1  0
 24  9  1  0
 24 25  2  0
  8 26  2  0
 26  4  1  0
M  END
> <Smiles>
CCOc1cccc(C2(CC)Oc3ccccc3-n3cccc3C2=O)c1

> <IC50_uM>
0.2

> <pIC50>
6.698970004

> <Activity>
1

$$$$

  SciTegic10102310092D

 31 35  0  0  0  0            999 V2000
    3.5145   -2.2320    0.0000 C   0  0
    2.0759   -1.8072    0.0000 C   0  0
    1.6852   -0.3846    0.0000 C   0  0  3  0  0  0
    2.6548    0.7277    0.0000 C   0  0
    4.1268    0.4395    0.0000 C   0  0
    5.1124    1.5703    0.0000 C   0  0
    4.6260    2.9892    0.0000 C   0  0
    5.6098    4.1226    0.0000 C   0  0
    5.1210    5.5416    0.0000 O   0  0
    6.1048    6.6750    0.0000 C   0  0
    5.6184    8.0940    0.0000 C   0  0
    6.6040    9.2247    0.0000 C   0  0
    8.0761    8.9366    0.0000 C   0  0
    8.5626    7.5177    0.0000 C   0  0
    7.5770    6.3869    0.0000 C   0  0
    3.1539    3.2774    0.0000 C   0  0
    2.1683    2.1466    0.0000 C   0  0
    1.3514    1.0778    0.0000 O   0  0
    0.0000    1.7286    0.0000 C   0  0
    0.1115    3.2255    0.0000 C   0  0
   -1.1278    4.0705    0.0000 C   0  0
   -2.4793    3.4196    0.0000 C   0  0
   -2.5914    1.9238    0.0000 C   0  0
   -1.3515    1.0777    0.0000 C   0  0
   -1.6852   -0.3847    0.0000 N   0  0
   -3.0899   -0.9120    0.0000 C   0  0
   -3.0226   -2.4105    0.0000 C   0  0
   -1.5767   -2.8095    0.0000 C   0  0
   -0.7500   -1.5574    0.0000 C   0  0
    0.7500   -1.5574    0.0000 C   0  0
    1.4008   -2.9088    0.0000 O   0  0
  1  2  1  0
  3  2  1  4
  3  4  1  0
  4  5  2  0
  5  6  1  0
  6  7  2  0
  7  8  1  0
  8  9  1  0
  9 10  1  0
 10 11  2  0
 11 12  1  0
 12 13  2  0
 13 14  1  0
 14 15  2  0
 15 10  1  0
  7 16  1  0
 16 17  2  0
 17  4  1  0
  3 18  1  0
 18 19  1  0
 19 20  2  0
 20 21  1  0
 21 22  2  0
 22 23  1  0
 23 24  2  0
 24 19  1  0
 24 25  1  0
 25 26  1  0
 26 27  2  0
 27 28  1  0
 28 29  2  0
 29 25  1  0
 29 30  1  0
 30  3  1  0
 30 31  2  0
M  END
> <Smiles>
CCC1(c2ccc(COc3ccccc3)cc2)Oc2ccccc2-n2cccc2C1=O

> <IC50_uM>
0.2

> <pIC50>
6.698970004

> <Activity>
1

$$$$

  SciTegic10102310092D

 34 37  0  0  0  0            999 V2000
    5.1996   -1.4928    0.0000 C   0  0
    3.8990   -0.7455    0.0000 C   0  0
    2.6003   -1.4977    0.0000 O   0  0
    1.2990   -0.7500    0.0000 C   0  0
    1.2990    0.7500    0.0000 C   0  0
    0.0000    1.5000    0.0000 C   0  0
    0.0031    3.0008    0.0000 O   0  0
    1.3039    3.7494    0.0000 C   0  0
    2.6004    2.9949    0.0000 C   0  0
    3.9020    3.7405    0.0000 C   0  0
    3.9072    5.2405    0.0000 C   0  0
    2.6108    5.9949    0.0000 C   0  0
    1.3092    5.2494    0.0000 C   0  0
    0.0136    6.0070    0.0000 O   0  0
    0.0209    7.5078    0.0000 C   0  0
   -1.2746    8.2654    0.0000 C   0  0
   -1.2673    9.7662    0.0000 N   0  0
    0.0370   10.5073    0.0000 C   0  0
    0.0474   12.0073    0.0000 C   0  0
   -1.2464   12.7663    0.0000 C   0  0
   -1.2360   14.2662    0.0000 O   0  0
   -2.5506   12.0253    0.0000 N   0  0
   -2.5610   10.5253    0.0000 C   0  0
   -3.8653    9.7844    0.0000 O   0  0
   -1.2990    0.7500    0.0000 C   0  0
   -2.5981    1.5000    0.0000 C   0  0
   -1.2990   -0.7500    0.0000 C   0  0
   -2.5981   -1.5000    0.0000 C   0  0
   -2.5981   -3.0000    0.0000 C   0  0
   -3.8978   -3.7504    0.0000 C   0  0
   -5.1968   -4.5004    0.0000 N   0  0
   -1.2990   -3.7500    0.0000 C   0  0
    0.0000   -3.0000    0.0000 C   0  0
    0.0000   -1.5000    0.0000 C   0  0
  1  2  1  0
  2  3  1  0
  3  4  1  0
  4  5  2  0
  5  6  1  0
  6  7  1  0
  7  8  1  0
  8  9  2  0
  9 10  1  0
 10 11  2  0
 11 12  1  0
 12 13  2  0
 13  8  1  0
 13 14  1  0
 14 15  1  0
 15 16  1  0
 16 17  1  0
 17 18  1  0
 18 19  2  0
 19 20  1  0
 20 21  2  0
 20 22  1  0
 22 23  1  0
 23 17  1  0
 23 24  2  0
  6 25  2  0
 25 26  1  0
 25 27  1  0
 27 28  2  0
 28 29  1  0
 29 30  1  0
 30 31  3  0
 29 32  2  0
 32 33  1  0
 33 34  2  0
 34  4  1  0
 34 27  1  0
M  END
> <Smiles>
CCOc1cc(Oc2ccccc2OCCn2ccc(=O)[nH]c2=O)c(C)c2cc(C#N)ccc12

> <IC50_uM>
0.2

> <pIC50>
6.698970004

> <Activity>
1

$$$$

  SciTegic10102310092D

 31 33  0  0  0  0            999 V2000
    3.1676   -7.5606    0.0000 C   0  0
    1.7006   -7.2475    0.0000 C   0  0
    0.6960   -8.3614    0.0000 C   0  0
   -0.7710   -8.0483    0.0000 C   0  0
   -1.7756   -9.1622    0.0000 C   0  0
   -1.2333   -6.6213    0.0000 C   0  0
   -0.2287   -5.5075    0.0000 C   0  0
   -0.6913   -4.0797    0.0000 S   0  0
   -2.1584   -3.7671    0.0000 O   0  0
   -1.6957   -5.1937    0.0000 O   0  0
    0.3114   -2.9665    0.0000 C   0  0
    1.8032   -3.1233    0.0000 C   0  0
    2.5551   -4.4192    0.0000 C   0  0
    1.8074   -5.7196    0.0000 O   0  0
    4.0559   -4.4171    0.0000 N   0  0
    4.8090   -5.7153    0.0000 C   0  0
    6.3098   -5.7131    0.0000 C   0  0
    7.0629   -7.0113    0.0000 C   0  0
    6.3152   -8.3116    0.0000 N   0  0
    8.5629   -7.0091    0.0000 O   0  0
    2.4133   -1.7530    0.0000 N   0  0
    1.2990   -0.7500    0.0000 C   0  0
    1.2990    0.7500    0.0000 C   0  0
    0.0000    1.5000    0.0000 C   0  0
   -1.2990    0.7500    0.0000 C   0  0
   -2.6003    1.4977    0.0000 N   0  3
   -3.8983    0.7459    0.0000 O   0  0
   -2.6030    2.9977    0.0000 O   0  5
   -1.2990   -0.7500    0.0000 C   0  0
    0.0000   -1.5000    0.0000 C   0  0
    1.2383   -5.8206    0.0000 C   0  0
  1  2  1  0
  2  3  2  0
  3  4  1  0
  4  5  1  0
  4  6  2  0
  6  7  1  0
  7  8  1  0
  8  9  2  0
  8 10  2  0
  8 11  1  0
 11 12  2  0
 12 13  1  0
 13 14  2  0
 13 15  1  0
 15 16  1  0
 16 17  1  0
 17 18  1  0
 18 19  1  0
 18 20  2  0
 12 21  1  0
 21 22  1  0
 22 23  2  0
 23 24  1  0
 24 25  2  0
 25 26  1  0
 26 27  2  0
 26 28  1  0
 25 29  1  0
 29 30  2  0
 30 11  1  0
 30 22  1  0
  7 31  2  0
 31  2  1  0
M  CHG  2  26   1  28  -1
M  END
> <Smiles>
Cc1cc(C)cc(S(=O)(=O)c2c(C(=O)NCCC(N)=O)[nH]c3ccc([N+](=O)[O-])cc23)c1

> <IC50_uM>
0.204

> <pIC50>
6.690369833

> <Activity>
1

$$$$

  SciTegic10102310092D

 30 32  0  0  0  0            999 V2000
    3.1676   -7.5606    0.0000 C   0  0
    1.7006   -7.2475    0.0000 C   0  0
    0.6960   -8.3614    0.0000 C   0  0
   -0.7710   -8.0483    0.0000 C   0  0
   -1.7756   -9.1622    0.0000 C   0  0
   -1.2333   -6.6213    0.0000 C   0  0
   -0.2287   -5.5075    0.0000 C   0  0
   -0.6913   -4.0797    0.0000 S   0  0
   -2.1584   -3.7671    0.0000 O   0  0
   -1.6957   -5.1937    0.0000 O   0  0
    0.3114   -2.9665    0.0000 C   0  0
    1.8032   -3.1233    0.0000 C   0  0
    2.5551   -4.4192    0.0000 C   0  0
    1.8074   -5.7196    0.0000 O   0  0
    4.0559   -4.4171    0.0000 N   0  0
    4.8090   -5.7153    0.0000 C   0  0
    6.3098   -5.7131    0.0000 C   0  0
    7.0575   -4.4127    0.0000 N   0  0
    7.0625   -7.0106    0.0000 O   0  0
    2.4133   -1.7530    0.0000 N   0  0
    1.2990   -0.7500    0.0000 C   0  0
    1.2990    0.7500    0.0000 C   0  0
    0.0000    1.5000    0.0000 C   0  0
   -1.2990    0.7500    0.0000 C   0  0
   -2.6003    1.4977    0.0000 N   0  3
   -3.8983    0.7459    0.0000 O   0  0
   -2.6030    2.9977    0.0000 O   0  5
   -1.2990   -0.7500    0.0000 C   0  0
    0.0000   -1.5000    0.0000 C   0  0
    1.2383   -5.8206    0.0000 C   0  0
  1  2  1  0
  2  3  2  0
  3  4  1  0
  4  5  1  0
  4  6  2  0
  6  7  1  0
  7  8  1  0
  8  9  2  0
  8 10  2  0
  8 11  1  0
 11 12  2  0
 12 13  1  0
 13 14  2  0
 13 15  1  0
 15 16  1  0
 16 17  1  0
 17 18  1  0
 17 19  2  0
 12 20  1  0
 20 21  1  0
 21 22  2  0
 22 23  1  0
 23 24  2  0
 24 25  1  0
 25 26  2  0
 25 27  1  0
 24 28  1  0
 28 29  2  0
 29 11  1  0
 29 21  1  0
  7 30  2  0
 30  2  1  0
M  CHG  2  25   1  27  -1
M  END
> <Smiles>
Cc1cc(C)cc(S(=O)(=O)c2c(C(=O)NCC(N)=O)[nH]c3ccc([N+](=O)[O-])cc23)c1

> <IC50_uM>
0.206

> <pIC50>
6.68613278

> <Activity>
1

$$$$

  SciTegic10102310092D

 39 41  0  0  0  0            999 V2000
    7.7919    1.5103    0.0000 C   0  0
    9.0933    0.7644    0.0000 C   0  0
    9.0990   -0.7364    0.0000 N   0  0
    7.8003   -1.4887    0.0000 C   0  0
    7.8029   -2.9887    0.0000 O   0  0
    6.4990   -0.7409    0.0000 C   0  0
    5.2003   -1.4932    0.0000 C   0  0
    3.8990   -0.7455    0.0000 C   0  0
    3.8964    0.7545    0.0000 O   0  0
    2.6003   -1.4977    0.0000 N   0  0
    1.2990   -0.7500    0.0000 C   0  0
    1.2990    0.7500    0.0000 C   0  0
    0.0000    1.5000    0.0000 C   0  0
   -1.2990    0.7500    0.0000 C   0  0
   -2.5987    1.5004    0.0000 C   0  0
   -2.6012    3.0004    0.0000 C   0  0
   -3.9015    3.7484    0.0000 C   0  0
   -5.1993    2.9963    0.0000 C   0  0
   -6.5018    3.7420    0.0000 O   0  0
   -7.7993    2.9876    0.0000 C   0  0
   -9.1017    3.7333    0.0000 C   0  0
  -10.3985    2.9794    0.0000 O   0  0
   -9.1067    5.2333    0.0000 O   0  0
   -5.1969    1.4963    0.0000 C   0  0
   -3.8967    0.7484    0.0000 C   0  0
   -1.2990   -0.7500    0.0000 C   0  0
    0.0000   -1.5000    0.0000 C   0  0
    0.0000   -3.0000    0.0000 Cl  0  0
   10.4003   -1.4841    0.0000 C   0  0
   10.4004   -2.9842    0.0000 C   0  0
   11.6994   -3.7342    0.0000 C   0  0
   12.9985   -2.9841    0.0000 C   0  0
   14.2982   -3.7345    0.0000 C   0  0
   14.2992   -5.2345    0.0000 C   0  0
   15.5970   -2.9841    0.0000 C   0  0
   15.5977   -4.4839    0.0000 C   0  0
   12.9984   -1.4841    0.0000 C   0  0
   11.6994   -0.7342    0.0000 C   0  0
   11.6994    0.7658    0.0000 Cl  0  0
  1  2  1  0
  2  3  1  0
  3  4  1  0
  4  5  2  0
  4  6  1  0
  6  7  1  0
  7  8  1  0
  8  9  2  0
  8 10  1  0
 10 11  1  0
 11 12  2  0
 12 13  1  0
 13 14  2  0
 14 15  1  0
 15 16  2  0
 16 17  1  0
 17 18  2  0
 18 19  1  0
 19 20  1  0
 20 21  1  0
 21 22  2  0
 21 23  1  0
 18 24  1  0
 24 25  2  0
 25 15  1  0
 14 26  1  0
 26 27  2  0
 27 11  1  0
 27 28  1  0
  3 29  1  0
 29 30  2  0
 30 31  1  0
 31 32  2  0
 32 33  1  0
 33 34  1  0
 33 35  1  0
 33 36  1  0
 32 37  1  0
 37 38  2  0
 38 29  1  0
 38 39  1  0
M  END
> <Smiles>
CCN(C(=O)CCC(=O)Nc1ccc(-c2ccc(OCC(=O)O)cc2)cc1Cl)c1ccc(C(C)(C)C)cc1Cl

> <IC50_uM>
0.207

> <pIC50>
6.684029655

> <Activity>
1

$$$$

  SciTegic10102310092D

 37 41  0  0  0  0            999 V2000
    2.5923    1.5001    0.0000 C   0  0
    3.8939    0.7546    0.0000 C   0  0
    5.1903    1.5091    0.0000 C   0  0
    6.4920    0.7636    0.0000 C   0  0
    7.7907    1.5158    0.0000 C   0  0
    9.0920    0.7680    0.0000 C   0  0
   10.3907    1.5203    0.0000 C   0  0
   11.6886    2.2721    0.0000 N   0  0
    6.4972   -0.7364    0.0000 C   0  0
    5.2007   -1.4909    0.0000 C   0  0
    5.2059   -2.9909    0.0000 C   0  0
    3.8990   -0.7455    0.0000 C   0  0
    2.6003   -1.4977    0.0000 O   0  0
    1.2990   -0.7500    0.0000 C   0  0
    1.2990    0.7500    0.0000 N   0  0
    0.0000    1.5000    0.0000 C   0  0
   -0.0031    3.0008    0.0000 N   0  0
   -1.3039    3.7494    0.0000 C   0  0
   -1.3092    5.2494    0.0000 C   0  0
   -2.6108    5.9949    0.0000 C   0  0
   -3.9073    5.2404    0.0000 N   0  0
   -5.2112    5.9836    0.0000 C   0  0
   -6.5072    5.2269    0.0000 C   0  0
   -6.4969    3.7268    0.0000 C   0  0
   -7.7907    2.9679    0.0000 C   0  0
   -9.0949    3.7089    0.0000 C   0  0
   -9.1053    5.2088    0.0000 C   0  0
   -7.8115    5.9678    0.0000 C   0  0
   -7.8219    7.4678    0.0000 Cl  0  0
   -3.9021    3.7404    0.0000 C   0  0
   -2.6005    2.9949    0.0000 C   0  0
   -1.2990    0.7500    0.0000 N   0  0
   -1.2990   -0.7500    0.0000 C   0  0
   -2.4133   -1.7530    0.0000 C   0  0
   -1.8032   -3.1233    0.0000 C   0  0
   -0.3114   -2.9665    0.0000 S   0  0
    0.0000   -1.5000    0.0000 C   0  0
  1  2  1  0
  2  3  2  0
  3  4  1  0
  4  5  1  0
  5  6  2  0
  6  7  1  0
  7  8  3  0
  4  9  2  0
  9 10  1  0
 10 11  1  0
 10 12  2  0
 12  2  1  0
 12 13  1  0
 13 14  1  0
 14 15  2  0
 15 16  1  0
 16 17  1  0
 17 18  1  0
 18 19  1  0
 19 20  1  0
 20 21  1  0
 21 22  1  0
 22 23  1  0
 23 24  2  0
 24 25  1  0
 25 26  2  0
 26 27  1  0
 27 28  2  0
 28 23  1  0
 28 29  1  0
 21 30  1  0
 30 31  1  0
 31 18  1  0
 16 32  2  0
 32 33  1  0
 33 34  1  0
 34 35  2  0
 35 36  1  0
 36 37  1  0
 37 14  1  0
 37 33  2  0
M  END
> <Smiles>
Cc1cc(/C=C/C#N)cc(C)c1Oc1nc(NC2CCN(Cc3ccccc3Cl)CC2)nc2ccsc12

> <IC50_uM>
0.207

> <pIC50>
6.684029655

> <Activity>
1

$$$$

  SciTegic10102310092D

 13 13  0  0  0  0            999 V2000
    3.5898   -2.1560    0.0000 C   0  0
    3.1497   -0.7220    0.0000 C   0  0
    4.1718    0.3758    0.0000 C   0  0
    1.6852   -0.3846    0.0000 C   0  0
    1.3514    1.0778    0.0000 C   0  0
    0.0000    1.7286    0.0000 C   0  0
   -1.3515    1.0777    0.0000 C   0  0
   -2.5242    2.0130    0.0000 O   0  0
   -1.6852   -0.3847    0.0000 C   0  0
   -3.1476   -0.7184    0.0000 O   0  0
   -0.7500   -1.5574    0.0000 C   0  0
   -1.4008   -2.9088    0.0000 O   0  0
    0.7500   -1.5574    0.0000 C   0  0
  1  2  1  0
  2  3  1  0
  2  4  1  0
  4  5  2  0
  5  6  1  0
  6  7  2  0
  7  8  1  0
  7  9  1  0
  9 10  2  0
  9 11  1  0
 11 12  1  0
 11 13  2  0
 13  4  1  0
M  END
> <Smiles>
CC(C)c1ccc(O)c(=O)c(O)c1

> <IC50_uM>
0.21

> <pIC50>
6.677780705

> <Activity>
1

$$$$

  SciTegic10102310092D

 23 25  0  0  0  0            999 V2000
    2.5951   -3.0031    0.0000 C   0  0
    2.5973   -1.5031    0.0000 C   0  0
    1.2990   -0.7500    0.0000 C   0  0
    1.2990    0.7500    0.0000 C   0  0
    2.5972    1.5031    0.0000 O   0  0
    2.5951    3.0039    0.0000 C   0  0
    3.8915    3.7585    0.0000 C   0  0
    3.8863    5.2585    0.0000 C   0  0
    5.1827    6.0130    0.0000 C   0  0
    2.5847    6.0040    0.0000 C   0  0
    1.2883    5.2495    0.0000 C   0  0
   -0.0134    5.9950    0.0000 C   0  0
    1.2934    3.7495    0.0000 C   0  0
    0.0000    1.5000    0.0000 N   0  0
   -0.0031    3.0008    0.0000 C   0  0
   -1.3039    3.7494    0.0000 C   0  0
   -1.9792    5.0003    0.0000 C   0  0
   -2.7246    3.6986    0.0000 C   0  0
   -1.2990    0.7500    0.0000 C   0  0
   -2.5981    1.5000    0.0000 O   0  0
   -1.2990   -0.7500    0.0000 N   0  0
    0.0000   -1.5000    0.0000 C   0  0
    0.0000   -3.0000    0.0000 O   0  0
  1  2  1  0
  2  3  1  0
  3  4  2  0
  4  5  1  0
  5  6  1  0
  6  7  2  0
  7  8  1  0
  8  9  1  0
  8 10  2  0
 10 11  1  0
 11 12  1  0
 11 13  2  0
 13  6  1  0
  4 14  1  0
 14 15  1  0
 15 16  1  0
 16 17  1  0
 17 18  1  0
 18 16  1  0
 14 19  1  0
 19 20  2  0
 19 21  1  0
 21 22  1  0
 22  3  1  0
 22 23  2  0
M  END
> <Smiles>
CCc1c(Oc2cc(C)cc(C)c2)n(CC2CC2)c(=O)[nH]c1=O

> <IC50_uM>
0.21

> <pIC50>
6.677780705

> <Activity>
1

$$$$

  SciTegic10102310092D

 23 24  0  0  0  0            999 V2000
    3.9075   -3.7444    0.0000 C   0  0
    2.6060   -2.9986    0.0000 C   0  0
    2.6003   -1.4977    0.0000 C   0  0  3  0  0  0
    1.2990   -0.7500    0.0000 C   0  0
    1.2990    0.7500    0.0000 N   0  0
    0.0000    1.5000    0.0000 C   0  0
   -0.0031    3.0008    0.0000 S   0  0
   -1.3039    3.7494    0.0000 C   0  0
   -1.3070    5.2494    0.0000 C   0  0
   -2.6017    2.9971    0.0000 C   0  0
   -1.2990    0.7500    0.0000 N   0  0
   -1.2990   -0.7500    0.0000 C   0  0
   -2.5981   -1.5000    0.0000 O   0  0
    0.0000   -1.5000    0.0000 C   0  0
    0.0000   -3.0000    0.0000 C   0  0
    3.8990   -0.7455    0.0000 C   0  0
    5.2007   -1.4909    0.0000 C   0  0
    5.2060   -2.9909    0.0000 F   0  0
    6.4972   -0.7364    0.0000 C   0  0
    6.4920    0.7636    0.0000 C   0  0
    5.1903    1.5091    0.0000 C   0  0
    3.8939    0.7546    0.0000 C   0  0
    2.5923    1.5001    0.0000 F   0  0
  1  2  1  0
  3  2  1  4
  3  4  1  0
  4  5  1  0
  5  6  2  0
  6  7  1  0
  7  8  1  0
  8  9  1  0
  8 10  1  0
  6 11  1  0
 11 12  1  0
 12 13  2  0
 12 14  1  0
 14  4  2  0
 14 15  1  0
  3 16  1  0
 16 17  2  0
 17 18  1  0
 17 19  1  0
 19 20  2  0
 20 21  1  0
 21 22  2  0
 22 16  1  0
 22 23  1  0
M  END
> <Smiles>
CCC(c1nc(SC(C)C)[nH]c(=O)c1C)c1c(F)cccc1F

> <IC50_uM>
0.21

> <pIC50>
6.677780705

> <Activity>
1

$$$$

  SciTegic10102310092D

 25 27  0  0  0  0            999 V2000
    2.5981   -1.5000    0.0000 C   0  0
    1.2990   -0.7500    0.0000 C   0  0
    1.2990    0.7500    0.0000 C   0  0
    0.0000    1.5000    0.0000 C   0  0
    0.0000    3.0000    0.0000 C   0  0
   -1.2990    0.7500    0.0000 C   0  0
   -1.2990   -0.7500    0.0000 C   0  0
   -2.5972   -1.5031    0.0000 O   0  0
   -2.5951   -3.0039    0.0000 C   0  0
   -3.8915   -3.7585    0.0000 C   0  0
   -5.1954   -3.0153    0.0000 C   0  0
   -6.4908   -3.7717    0.0000 C   0  0
   -5.2033   -1.5153    0.0000 C   0  0
   -3.8863   -5.2585    0.0000 C   0  0
   -5.1828   -6.0130    0.0000 O   0  0
   -2.5847   -6.0040    0.0000 N   0  0
   -1.2883   -5.2495    0.0000 C   0  0
    0.0134   -5.9950    0.0000 O   0  0
   -1.2935   -3.7495    0.0000 N   0  0
    0.0022   -2.9920    0.0000 C   0  0
    1.3065   -3.7344    0.0000 C   0  0
    2.7089   -3.3147    0.0000 C   0  0
    3.1030   -4.7620    0.0000 C   0  0
    1.6557   -5.1561    0.0000 C   0  0
    0.0000   -1.5000    0.0000 C   0  0
  1  2  1  0
  2  3  2  0
  3  4  1  0
  4  5  1  0
  4  6  2  0
  6  7  1  0
  7  8  1  0
  8  9  1  0
  9 10  2  0
 10 11  1  0
 11 12  1  0
 11 13  1  0
 10 14  1  0
 14 15  2  0
 14 16  1  0
 16 17  1  0
 17 18  2  0
 17 19  1  0
 19  9  1  0
 19 20  1  0
 20 21  1  0
 21 22  1  0
 22 23  1  0
 23 24  1  0
 24 21  1  0
  7 25  2  0
 25  2  1  0
M  END
> <Smiles>
Cc1cc(C)cc(Oc2c(C(C)C)c(=O)[nH]c(=O)n2CC2CCC2)c1

> <IC50_uM>
0.213

> <pIC50>
6.671620397

> <Activity>
1

$$$$

  SciTegic10102310092D

 21 23  0  0  1  0            999 V2000
    2.5981   -1.5000    0.0000 O   0  0
    1.2990   -0.7500    0.0000 C   0  0
    1.2990    0.7500    0.0000 N   0  0
    0.0000    1.5000    0.0000 C   0  0
    0.0000    3.0000    0.0000 C   0  0
   -1.2991    3.7500    0.0000 C   0  0
   -2.5981    3.0000    0.0000 C   0  0
   -3.8971    3.7500    0.0000 Cl  0  0
   -2.5981    1.5000    0.0000 C   0  0
   -1.2990    0.7500    0.0000 C   0  0
   -1.2990   -0.7500    0.0000 C   0  0  1  0  0  0
   -2.5632    0.0202    0.0000 C   0  0
   -3.8636    0.7694    0.0000 C   0  0
   -5.1641    1.5185    0.0000 C   0  0
   -6.5848    1.4715    0.0000 C   0  0
   -5.8360    2.7712    0.0000 C   0  0
   -1.2643   -2.2302    0.0000 C   0  0
    0.0335   -2.9824    0.0000 F   0  0
   -1.2665   -3.7302    0.0000 F   0  0
   -2.5643   -2.9785    0.0000 F   0  0
    0.0000   -1.5000    0.0000 O   0  0
  1  2  2  0
  2  3  1  0
  3  4  1  0
  4  5  2  0
  5  6  1  0
  6  7  2  0
  7  8  1  0
  7  9  1  0
  9 10  2  0
 10  4  1  0
 10 11  1  0
 11 12  1  1
 12 13  3  0
 13 14  1  0
 14 15  1  0
 15 16  1  0
 16 14  1  0
 11 17  1  0
 17 18  1  0
 17 19  1  0
 17 20  1  0
 11 21  1  0
 21  2  1  0
M  END
> <Smiles>
O=C1Nc2ccc(Cl)cc2[C@@](C#CC2CC2)(C(F)(F)F)O1

> <IC50_uM>
0.216

> <pIC50>
6.665546249

> <Activity>
1

$$$$

  SciTegic10102310092D

 34 37  0  0  0  0            999 V2000
    3.1676   -7.5606    0.0000 C   0  0
    1.7006   -7.2475    0.0000 C   0  0
    0.6960   -8.3614    0.0000 C   0  0
   -0.7710   -8.0483    0.0000 C   0  0
   -1.7756   -9.1622    0.0000 C   0  0
   -1.2333   -6.6213    0.0000 C   0  0
   -0.2287   -5.5075    0.0000 C   0  0
   -0.6913   -4.0797    0.0000 S   0  0
   -2.1584   -3.7671    0.0000 O   0  0
   -1.6957   -5.1937    0.0000 O   0  0
    0.3114   -2.9665    0.0000 C   0  0
    1.8032   -3.1233    0.0000 C   0  0
    2.5551   -4.4192    0.0000 C   0  0
    1.8074   -5.7196    0.0000 O   0  0
    4.0559   -4.4171    0.0000 N   0  0
    4.8090   -5.7153    0.0000 C   0  0
    6.3098   -5.7131    0.0000 C   0  0
    7.0644   -7.0095    0.0000 C   0  0
    8.5644   -7.0043    0.0000 C   0  0
    9.3099   -5.7026    0.0000 C   0  0
   10.8107   -5.6943    0.0000 N   0  3
   11.5543   -4.3916    0.0000 O   0  0
   11.5675   -6.9894    0.0000 O   0  5
    8.5554   -4.4062    0.0000 C   0  0
    7.0554   -4.4114    0.0000 C   0  0
    2.4133   -1.7530    0.0000 N   0  0
    1.2990   -0.7500    0.0000 C   0  0
    1.2990    0.7500    0.0000 C   0  0
    0.0000    1.5000    0.0000 C   0  0
   -1.2990    0.7500    0.0000 C   0  0
   -2.5981    1.5000    0.0000 Cl  0  0
   -1.2990   -0.7500    0.0000 C   0  0
    0.0000   -1.5000    0.0000 C   0  0
    1.2383   -5.8206    0.0000 C   0  0
  1  2  1  0
  2  3  2  0
  3  4  1  0
  4  5  1  0
  4  6  2  0
  6  7  1  0
  7  8  1  0
  8  9  2  0
  8 10  2  0
  8 11  1  0
 11 12  2  0
 12 13  1  0
 13 14  2  0
 13 15  1  0
 15 16  1  0
 16 17  1  0
 17 18  2  0
 18 19  1  0
 19 20  2  0
 20 21  1  0
 21 22  2  0
 21 23  1  0
 20 24  1  0
 24 25  2  0
 25 17  1  0
 12 26  1  0
 26 27  1  0
 27 28  2  0
 28 29  1  0
 29 30  2  0
 30 31  1  0
 30 32  1  0
 32 33  2  0
 33 11  1  0
 33 27  1  0
  7 34  2  0
 34  2  1  0
M  CHG  2  21   1  23  -1
M  END
> <Smiles>
Cc1cc(C)cc(S(=O)(=O)c2c(C(=O)NCc3ccc([N+](=O)[O-])cc3)[nH]c3ccc(Cl)cc23)c1

> <IC50_uM>
0.218

> <pIC50>
6.661543506

> <Activity>
1

$$$$

  SciTegic10102310092D

 16 16  0  0  0  0            999 V2000
    1.2990   -0.7500    0.0000 C   0  0
    2.5988   -1.5004    0.0000 P   0  0  3  0  0  0
    2.5983   -3.0004    0.0000 S   0  0
    3.8990   -0.7508    0.0000 C   0  0
    5.1988   -1.5012    0.0000 C   0  0
    5.1983   -3.0012    0.0000 O   0  0
    6.4983   -0.7520    0.0000 O   0  0
    3.9026    0.7500    0.0000 C   0  0
    2.6051    1.5027    0.0000 O   0  0
    5.2029    1.4978    0.0000 O   0  0
    3.8975   -2.2510    0.0000 S   0  0
    1.2990    0.7500    0.0000 C   0  0
    0.0000    1.5000    0.0000 C   0  0
   -1.2990    0.7500    0.0000 C   0  0
   -1.2990   -0.7500    0.0000 C   0  0
    0.0000   -1.5000    0.0000 C   0  0
  1  2  1  0
  2  3  1  4
  2  4  1  0
  4  5  1  0
  5  6  1  0
  5  7  2  0
  4  8  1  0
  8  9  1  0
  8 10  2  0
  2 11  2  0
  1 12  2  0
 12 13  1  0
 13 14  2  0
 14 15  1  0
 15 16  2  0
 16  1  1  0
M  END
> <Smiles>
c1(P(S)(C(C(O)=O)C(O)=O)=S)ccccc1

> <IC50_uM>
0.218776162

> <pIC50>
6.660000001

> <Activity>
1

$$$$

  SciTegic10102310092D

 18 19  0  0  0  0            999 V2000
    2.5981   -1.5000    0.0000 O   0  0
    1.2990   -0.7500    0.0000 C   0  0
    1.2990    0.7500    0.0000 N   0  0
    0.0000    1.5000    0.0000 C   0  0
    0.0000    3.0000    0.0000 O   0  0
   -1.2990    0.7500    0.0000 N   0  0
   -2.5987    1.5004    0.0000 C   0  0  3  0  0  0
   -2.7390    2.9810    0.0000 C   0  0
   -4.2067    3.2905    0.0000 C   0  0  3  0  0  0
   -4.8154    4.6596    0.0000 O   0  0
   -3.9334    5.8739    0.0000 C   0  0
   -4.5429    7.2445    0.0000 O   0  0
   -4.9546    1.9903    0.0000 C   0  0  3  0  0  0
   -6.4441    1.8282    0.0000 C   0  0
   -7.0500    0.4561    0.0000 O   0  0
   -3.9492    0.8772    0.0000 O   0  0
   -1.2990   -0.7500    0.0000 C   0  0
    0.0000   -1.5000    0.0000 C   0  0
  1  2  2  0
  2  3  1  0
  3  4  1  0
  4  5  2  0
  4  6  1  0
  7  6  1  4
  7  8  1  0
  8  9  1  0
  9 10  1  4
 10 11  1  0
 11 12  2  0
  9 13  1  0
 13 14  1  4
 14 15  1  0
 13 16  1  0
 16  7  1  0
  6 17  1  0
 17 18  2  0
 18  2  1  0
M  END
> <Smiles>
O=C1NC(=O)N(C2CC(OC=O)C(CO)O2)C=C1

> <IC50_uM>
0.218776162

> <pIC50>
6.660000001

> <Activity>
1

$$$$

  SciTegic10102310092D

 36 39  0  0  0  0            999 V2000
    5.1908   -4.5097    0.0000 N   0  0
    3.8933   -3.7570    0.0000 C   0  0
    2.5951   -3.0039    0.0000 C   0  0
    2.5973   -1.5031    0.0000 C   0  0
    1.2990   -0.7500    0.0000 C   0  0
    1.2990    0.7500    0.0000 C   0  0
    0.0000    1.5000    0.0000 C   0  0
   -1.2990    0.7500    0.0000 C   0  0
   -2.6003    1.4977    0.0000 N   0  0
   -3.8990    0.7455    0.0000 C   0  0
   -5.2007    1.4909    0.0000 C   0  0
   -6.4972    0.7364    0.0000 C   0  0
   -7.8010    1.4796    0.0000 N   0  0
   -9.0971    0.7229    0.0000 C   0  0
  -10.4010    1.4661    0.0000 C   0  0
  -11.6971    0.7093    0.0000 C   0  0
  -13.0009    1.4526    0.0000 N   0  0
  -14.2974    0.6981    0.0000 C   0  0
  -15.5991    1.4436    0.0000 C   0  0
  -15.6043    2.9436    0.0000 O   0  0
  -14.3079    3.6981    0.0000 C   0  0
  -13.0062    2.9526    0.0000 C   0  0
   -6.4920   -0.7636    0.0000 N   0  0
   -5.1903   -1.5091    0.0000 C   0  0
   -5.1821   -3.0099    0.0000 N   0  0
   -3.8787   -3.7540    0.0000 C   0  0
   -3.8682   -5.2539    0.0000 C   0  0
   -2.5640   -5.9949    0.0000 C   0  0
   -1.2702   -5.2360    0.0000 C   0  0
    0.0347   -5.9774    0.0000 C   0  0
    1.3389   -6.7184    0.0000 N   0  0
   -1.2805   -3.7360    0.0000 C   0  0
   -2.5847   -2.9950    0.0000 C   0  0
   -3.8939   -0.7546    0.0000 N   0  0
   -1.2990   -0.7500    0.0000 C   0  0
    0.0000   -1.5000    0.0000 C   0  0
  1  2  3  0
  2  3  1  0
  3  4  2  0
  4  5  1  0
  5  6  2  0
  6  7  1  0
  7  8  2  0
  8  9  1  0
  9 10  1  0
 10 11  2  0
 11 12  1  0
 12 13  1  0
 13 14  1  0
 14 15  1  0
 15 16  1  0
 16 17  1  0
 17 18  1  0
 18 19  1  0
 19 20  1  0
 20 21  1  0
 21 22  1  0
 22 17  1  0
 12 23  2  0
 23 24  1  0
 24 25  1  0
 25 26  1  0
 26 27  2  0
 27 28  1  0
 28 29  2  0
 29 30  1  0
 30 31  3  0
 29 32  1  0
 32 33  2  0
 33 26  1  0
 24 34  2  0
 34 10  1  0
  8 35  1  0
 35 36  2  0
 36  5  1  0
M  END
> <Smiles>
N#C/C=C/c1ccc(Nc2cc(NCCCN3CCOCC3)nc(Nc3ccc(C#N)cc3)n2)cc1

> <IC50_uM>
0.21878

> <pIC50>
6.659992382

> <Activity>
1

$$$$

  SciTegic10102310092D

 23 24  0  0  0  0            999 V2000
    3.8912   -5.2570    0.0000 C   0  0
    3.8933   -3.7570    0.0000 C   0  0
    2.5951   -3.0039    0.0000 C   0  0
    2.5973   -1.5031    0.0000 N   0  0
    1.2990   -0.7500    0.0000 C   0  0
    1.2990    0.7500    0.0000 N   0  0
    0.0000    1.5000    0.0000 C   0  0
    0.0031    3.0008    0.0000 C   0  0  3  0  0  0
   -1.2938    3.7562    0.0000 O   0  0
   -1.2891    5.2562    0.0000 C   0  0
    1.3039    3.7494    0.0000 C   0  0
    1.3092    5.2494    0.0000 C   0  0
    0.0127    6.0039    0.0000 F   0  0
    2.6108    5.9949    0.0000 C   0  0
    3.9072    5.2405    0.0000 C   0  0
    3.9020    3.7405    0.0000 C   0  0
    2.6004    2.9949    0.0000 C   0  0
    2.5953    1.4950    0.0000 F   0  0
   -1.2990    0.7500    0.0000 C   0  0
   -2.5981    1.5000    0.0000 C   0  0
   -1.2990   -0.7500    0.0000 C   0  0
   -2.5981   -1.5000    0.0000 O   0  0
    0.0000   -1.5000    0.0000 N   0  0
  1  2  1  0
  2  3  1  0
  3  4  1  0
  4  5  1  0
  5  6  2  0
  6  7  1  0
  7  8  1  0
  8  9  1  4
  9 10  1  0
  8 11  1  0
 11 12  2  0
 12 13  1  0
 12 14  1  0
 14 15  2  0
 15 16  1  0
 16 17  2  0
 17 11  1  0
 17 18  1  0
  7 19  2  0
 19 20  1  0
 19 21  1  0
 21 22  2  0
 21 23  1  0
 23  5  1  0
M  END
> <Smiles>
CCCNc1nc(C(OC)c2c(F)cccc2F)c(C)c(=O)[nH]1

> <IC50_uM>
0.22

> <pIC50>
6.657577319

> <Activity>
1

$$$$

  SciTegic10102310092D

 23 25  0  0  0  0            999 V2000
    2.5981   -1.5000    0.0000 O   0  0
    1.2990   -0.7500    0.0000 C   0  0
    1.2990    0.7500    0.0000 C   0  0
    0.0000    1.5000    0.0000 C   0  0
   -0.0031    3.0008    0.0000 N   0  0
   -1.3039    3.7494    0.0000 C   0  0
   -1.3092    5.2494    0.0000 C   0  0
   -2.6108    5.9949    0.0000 C   0  0
   -3.9073    5.2404    0.0000 C   0  0
   -3.9021    3.7404    0.0000 C   0  0
   -5.1992    2.9855    0.0000 C   0  0
   -6.5021    3.7289    0.0000 C   0  0
   -7.7973    2.9724    0.0000 C   0  0
   -7.7897    1.4724    0.0000 C   0  0
   -9.0850    0.7158    0.0000 Cl  0  0
   -6.4869    0.7290    0.0000 C   0  0
   -5.1917    1.4855    0.0000 C   0  0
   -2.6005    2.9949    0.0000 C   0  0
   -1.2990    0.7500    0.0000 N   0  0
   -1.2990   -0.7500    0.0000 C   0  0
   -2.5981   -1.5000    0.0000 O   0  0
    0.0000   -1.5000    0.0000 N   0  0
    0.0000   -3.0000    0.0000 O   0  0
  1  2  2  0
  2  3  1  0
  3  4  2  0
  4  5  1  0
  5  6  1  0
  6  7  2  0
  7  8  1  0
  8  9  2  0
  9 10  1  0
 10 11  1  0
 11 12  2  0
 12 13  1  0
 13 14  2  0
 14 15  1  0
 14 16  1  0
 16 17  2  0
 17 11  1  0
 10 18  2  0
 18  6  1  0
  4 19  1  0
 19 20  1  0
 20 21  2  0
 20 22  1  0
 22  2  1  0
 22 23  1  0
M  END
> <Smiles>
O=c1cc(Nc2cccc(-c3ccc(Cl)cc3)c2)[nH]c(=O)n1O

> <IC50_uM>
0.22

> <pIC50>
6.657577319

> <Activity>
1

$$$$

  SciTegic10102310092D

 28 32  0  0  0  0            999 V2000
   -2.1584   -3.7671    0.0000 O   0  0
   -0.6913   -4.0797    0.0000 S   0  0
   -1.1543   -2.6530    0.0000 O   0  0
    0.3114   -2.9665    0.0000 C   0  0
    1.8032   -3.1233    0.0000 C   0  0
    2.5536   -4.4230    0.0000 C   0  0
    2.0412   -5.8141    0.0000 N   0  0
    3.2305   -6.7268    0.0000 C   0  0
    3.3479   -8.2222    0.0000 C   0  0
    4.7016   -8.8683    0.0000 C   0  0
    5.9380   -8.0190    0.0000 C   0  0
    7.2917   -8.6650    0.0000 F   0  0
    5.8206   -6.5236    0.0000 C   0  0
    4.4669   -5.8775    0.0000 C   0  0
    4.0417   -4.4398    0.0000 N   0  0
    2.4133   -1.7530    0.0000 N   0  0
    1.2990   -0.7500    0.0000 C   0  0
    1.2990    0.7500    0.0000 C   0  0
    0.0000    1.5000    0.0000 C   0  0
   -1.2990    0.7500    0.0000 C   0  0
   -2.5981    1.5000    0.0000 Br  0  0
   -1.2990   -0.7500    0.0000 C   0  0
    0.0000   -1.5000    0.0000 C   0  0
   -0.2287   -5.5075    0.0000 N   0  0
   -1.1182   -6.6994    0.0000 C   0  0
   -0.2375   -7.9136    0.0000 C   0  0
    1.1895   -7.4513    0.0000 C   0  0
    1.1907   -5.9513    0.0000 C   0  0
  1  2  2  0
  2  3  2  0
  2  4  1  0
  4  5  2  0
  5  6  1  0
  6  7  2  0
  7  8  1  0
  8  9  2  0
  9 10  1  0
 10 11  2  0
 11 12  1  0
 11 13  1  0
 13 14  2  0
 14  8  1  0
 14 15  1  0
 15  6  1  0
  5 16  1  0
 16 17  1  0
 17 18  2  0
 18 19  1  0
 19 20  2  0
 20 21  1  0
 20 22  1  0
 22 23  2  0
 23  4  1  0
 23 17  1  0
  2 24  1  0
 24 25  1  0
 25 26  1  0
 26 27  1  0
 27 28  1  0
 28 24  1  0
M  END
> <Smiles>
O=S(=O)(c1c(-c2nc3ccc(F)cc3[nH]2)[nH]c2ccc(Br)cc12)N1CCCC1

> <IC50_uM>
0.22

> <pIC50>
6.657577319

> <Activity>
1

$$$$

  SciTegic10102310092D

 31 33  0  0  0  0            999 V2000
    2.5981   -1.5000    0.0000 C   0  0
    1.2990   -0.7500    0.0000 C   0  0
    1.2990    0.7500    0.0000 C   0  0
    0.0000    1.5000    0.0000 C   0  0
    0.0000    3.0008    0.0000 C   0  0
    0.0000    4.5008    0.0000 N   0  0
   -1.2990    0.7500    0.0000 C   0  0
   -1.2990   -0.7500    0.0000 C   0  0
   -2.5981   -1.5000    0.0000 C   0  0
    0.0000   -1.5000    0.0000 C   0  0
    0.0031   -3.0008    0.0000 O   0  0
    1.3039   -3.7494    0.0000 C   0  0
    1.3092   -5.2494    0.0000 C   0  0
    2.6108   -5.9949    0.0000 C   0  0
    3.9073   -5.2404    0.0000 N   0  0
    3.9021   -3.7404    0.0000 C   0  0
    5.1992   -2.9855    0.0000 S   0  0
    5.1936   -1.4855    0.0000 O   0  0
    6.4953   -2.2304    0.0000 O   0  0
    6.5020   -3.7306    0.0000 C   0  0
    7.7992   -2.9757    0.0000 C   0  0
    7.7935   -1.4757    0.0000 O   0  0
    9.1020   -3.7208    0.0000 N   0  0
   10.3991   -2.9659    0.0000 C   0  0
   11.7024   -3.7087    0.0000 C   0  0
   12.9972   -2.9515    0.0000 C   0  0
   12.9890   -1.4516    0.0000 C   0  0
   11.6859   -0.7087    0.0000 C   0  0
   11.6776    0.7913    0.0000 F   0  0
   10.3910   -1.4658    0.0000 C   0  0
    2.6004   -2.9949    0.0000 N   0  0
  1  2  1  0
  2  3  2  0
  3  4  1  0
  4  5  1  0
  5  6  3  0
  4  7  2  0
  7  8  1  0
  8  9  1  0
  8 10  2  0
 10  2  1  0
 10 11  1  0
 11 12  1  0
 12 13  2  0
 13 14  1  0
 14 15  2  0
 15 16  1  0
 16 17  1  0
 17 18  2  0
 17 19  2  0
 17 20  1  0
 20 21  1  0
 21 22  2  0
 21 23  1  0
 23 24  1  0
 24 25  2  0
 25 26  1  0
 26 27  2  0
 27 28  1  0
 28 29  1  0
 28 30  2  0
 30 24  1  0
 16 31  2  0
 31 12  1  0
M  END
> <Smiles>
Cc1cc(C#N)cc(C)c1Oc1ccnc(S(=O)(=O)CC(=O)Nc2cccc(F)c2)n1

> <IC50_uM>
0.22

> <pIC50>
6.657577319

> <Activity>
1

$$$$

  SciTegic10102310092D

 25 27  0  0  0  0            999 V2000
    2.5951   -3.0031    0.0000 C   0  0
    2.5973   -1.5031    0.0000 C   0  0
    1.2990   -0.7500    0.0000 C   0  0
    1.2990    0.7500    0.0000 C   0  0
    2.5972    1.5031    0.0000 O   0  0
    2.5951    3.0039    0.0000 C   0  0
    3.8915    3.7585    0.0000 C   0  0
    3.8863    5.2585    0.0000 C   0  0
    5.1827    6.0130    0.0000 C   0  0
    2.5847    6.0040    0.0000 C   0  0
    1.2883    5.2495    0.0000 C   0  0
   -0.0134    5.9950    0.0000 C   0  0
    1.2934    3.7495    0.0000 C   0  0
    0.0000    1.5000    0.0000 N   0  0
   -0.0031    3.0008    0.0000 C   0  0
   -1.3039    3.7494    0.0000 C   0  0
   -1.4470    5.2297    0.0000 C   0  0
   -2.9153    5.5365    0.0000 C   0  0
   -3.6607    4.2349    0.0000 C   0  0
   -2.6532    3.1236    0.0000 C   0  0
   -1.2990    0.7500    0.0000 C   0  0
   -2.5981    1.5000    0.0000 O   0  0
   -1.2990   -0.7500    0.0000 N   0  0
    0.0000   -1.5000    0.0000 C   0  0
    0.0000   -3.0000    0.0000 O   0  0
  1  2  1  0
  2  3  1  0
  3  4  2  0
  4  5  1  0
  5  6  1  0
  6  7  2  0
  7  8  1  0
  8  9  1  0
  8 10  2  0
 10 11  1  0
 11 12  1  0
 11 13  2  0
 13  6  1  0
  4 14  1  0
 14 15  1  0
 15 16  1  0
 16 17  2  0
 17 18  1  0
 18 19  1  0
 19 20  1  0
 20 16  1  0
 14 21  1  0
 21 22  2  0
 21 23  1  0
 23 24  1  0
 24  3  1  0
 24 25  2  0
M  END
> <Smiles>
CCc1c(Oc2cc(C)cc(C)c2)n(CC2=CCCC2)c(=O)[nH]c1=O

> <IC50_uM>
0.22

> <pIC50>
6.657577319

> <Activity>
1

$$$$

  SciTegic10102310092D

 32 35  0  0  0  0            999 V2000
    3.1676   -7.5606    0.0000 C   0  0
    1.7006   -7.2475    0.0000 C   0  0
    0.6960   -8.3614    0.0000 C   0  0
   -0.7710   -8.0483    0.0000 C   0  0
   -1.7756   -9.1622    0.0000 C   0  0
   -1.2333   -6.6213    0.0000 C   0  0
   -0.2287   -5.5075    0.0000 C   0  0
   -0.6913   -4.0797    0.0000 S   0  0
   -2.1584   -3.7671    0.0000 O   0  0
   -1.6957   -5.1937    0.0000 O   0  0
    0.3114   -2.9665    0.0000 N   0  0
    1.8032   -3.1233    0.0000 C   0  0
    2.5551   -4.4192    0.0000 S   0  0
    4.0559   -4.4171    0.0000 C   0  0
    4.8090   -5.7153    0.0000 C   0  0
    4.0613   -7.0156    0.0000 O   0  0
    6.3098   -5.7131    0.0000 N   0  0
    7.0629   -7.0113    0.0000 C   0  0
    6.3130   -8.3104    0.0000 C   0  0
    7.0631   -9.6094    0.0000 C   0  0
    8.5631   -9.6094    0.0000 C   0  0
    9.3130   -8.3103    0.0000 C   0  0
    8.5630   -7.0113    0.0000 C   0  0
    9.3129   -5.7122    0.0000 C   0  0
    2.4133   -1.7530    0.0000 N   0  0
    1.2990   -0.7500    0.0000 C   0  0
    1.2990    0.7500    0.0000 C   0  0
    0.0000    1.5000    0.0000 C   0  0
   -1.2990    0.7500    0.0000 C   0  0
   -1.2990   -0.7500    0.0000 C   0  0
    0.0000   -1.5000    0.0000 C   0  0
    1.2383   -5.8206    0.0000 C   0  0
  1  2  1  0
  2  3  2  0
  3  4  1  0
  4  5  1  0
  4  6  2  0
  6  7  1  0
  7  8  1  0
  8  9  2  0
  8 10  2  0
  8 11  1  0
 11 12  1  0
 12 13  1  0
 13 14  1  0
 14 15  1  0
 15 16  2  0
 15 17  1  0
 17 18  1  0
 18 19  2  0
 19 20  1  0
 20 21  2  0
 21 22  1  0
 22 23  2  0
 23 18  1  0
 23 24  1  0
 12 25  2  0
 25 26  1  0
 26 27  2  0
 27 28  1  0
 28 29  2  0
 29 30  1  0
 30 31  2  0
 31 26  1  0
 31 11  1  0
  7 32  2  0
 32  2  1  0
M  END
> <Smiles>
Cc1cc(C)cc(S(=O)(=O)n2c(SCC(=O)Nc3ccccc3C)nc3ccccc32)c1

> <IC50_uM>
0.222

> <pIC50>
6.653647026

> <Activity>
1

$$$$

  SciTegic10102310092D

 44 49  0  0  0  0            999 V2000
    2.5923    1.5001    0.0000 C   0  0
    3.8939    0.7546    0.0000 C   0  0
    5.1903    1.5091    0.0000 C   0  0
    6.4920    0.7636    0.0000 C   0  0
    7.7891    1.5185    0.0000 C   0  0
    9.0863    2.2734    0.0000 C   0  0
   10.3834    3.0283    0.0000 C   0  0
   11.6851    2.2828    0.0000 C   0  0
   12.9815    3.0372    0.0000 C   0  0
   12.9763    4.5372    0.0000 N   0  0
   11.6747    5.2827    0.0000 C   0  0
   10.3782    4.5283    0.0000 C   0  0
    6.4972   -0.7364    0.0000 C   0  0
    5.2007   -1.4909    0.0000 C   0  0
    5.2059   -2.9909    0.0000 C   0  0
    3.8990   -0.7455    0.0000 C   0  0
    2.6003   -1.4977    0.0000 O   0  0
    1.2990   -0.7500    0.0000 C   0  0
    1.2990    0.7500    0.0000 N   0  0
    0.0000    1.5000    0.0000 C   0  0
   -0.0031    3.0008    0.0000 N   0  0
   -1.3039    3.7494    0.0000 C   0  0
   -1.3092    5.2494    0.0000 C   0  0
   -2.6108    5.9949    0.0000 C   0  0
   -3.9073    5.2404    0.0000 N   0  0
   -5.2112    5.9836    0.0000 C   0  0
   -6.5072    5.2269    0.0000 C   0  0
   -7.8115    5.9678    0.0000 C   0  0
   -9.1053    5.2088    0.0000 C   0  0
   -9.0949    3.7089    0.0000 C   0  0
  -10.3895    2.9495    0.0000 S   0  0
  -10.3786    1.4495    0.0000 N   0  0
  -11.6941    3.6896    0.0000 O   0  0
  -11.6829    2.1899    0.0000 O   0  0
   -7.7907    2.9679    0.0000 C   0  0
   -6.4969    3.7269    0.0000 C   0  0
   -3.9021    3.7404    0.0000 C   0  0
   -2.6005    2.9949    0.0000 C   0  0
   -1.2990    0.7500    0.0000 N   0  0
   -1.2990   -0.7500    0.0000 C   0  0
   -2.4133   -1.7530    0.0000 C   0  0
   -1.8032   -3.1233    0.0000 C   0  0
   -0.3114   -2.9665    0.0000 S   0  0
    0.0000   -1.5000    0.0000 C   0  0
  1  2  1  0
  2  3  2  0
  3  4  1  0
  4  5  1  0
  5  6  3  0
  6  7  1  0
  7  8  2  0
  8  9  1  0
  9 10  2  0
 10 11  1  0
 11 12  2  0
 12  7  1  0
  4 13  2  0
 13 14  1  0
 14 15  1  0
 14 16  2  0
 16  2  1  0
 16 17  1  0
 17 18  1  0
 18 19  2  0
 19 20  1  0
 20 21  1  0
 21 22  1  0
 22 23  1  0
 23 24  1  0
 24 25  1  0
 25 26  1  0
 26 27  1  0
 27 28  2  0
 28 29  1  0
 29 30  2  0
 30 31  1  0
 31 32  1  0
 31 33  2  0
 31 34  2  0
 30 35  1  0
 35 36  2  0
 36 27  1  0
 25 37  1  0
 37 38  1  0
 38 22  1  0
 20 39  2  0
 39 40  1  0
 40 41  1  0
 41 42  2  0
 42 43  1  0
 43 44  1  0
 44 18  1  0
 44 40  2  0
M  END
> <Smiles>
Cc1cc(C#Cc2ccncc2)cc(C)c1Oc1nc(NC2CCN(Cc3ccc(S(N)(=O)=O)cc3)CC2)nc2ccsc12

> <IC50_uM>
0.223

> <pIC50>
6.651695137

> <Activity>
1

$$$$

  SciTegic10102310092D

 18 18  0  0  0  0            999 V2000
    3.1497   -0.7220    0.0000 C   0  0
    3.5900   -2.1568    0.0000 C   0  0
    5.0525   -2.4938    0.0000 C   0  0
    5.4929   -3.9285    0.0000 C   0  0
    4.4707   -5.0263    0.0000 O   0  0
    6.9546   -4.2653    0.0000 O   0  0
    1.6852   -0.3846    0.0000 C   0  0
    1.3514    1.0778    0.0000 S   0  0
    0.0000    1.7286    0.0000 O   0  0
   -1.3515    1.0777    0.0000 C   0  0
   -1.6852   -0.3847    0.0000 C   0  0
   -0.7500   -1.5574    0.0000 O   0  0
    0.7500   -1.5574    0.0000 S   0  0
    2.2485   -1.6243    0.0000 O   0  0
   -0.1318   -2.7708    0.0000 O   0  0
    2.7306    0.4879    0.0000 O   0  0
    1.0834    2.5536    0.0000 O   0  0
    4.1718    0.3758    0.0000 O   0  0
  1  2  1  0
  2  3  1  0
  3  4  1  0
  4  5  1  0
  4  6  2  0
  1  7  2  0
  7  8  1  0
  8  9  1  0
  9 10  1  0
 10 11  1  0
 11 12  1  0
 12 13  1  0
 13  7  1  0
 13 14  2  0
 13 15  2  0
  8 16  2  0
  8 17  2  0
  1 18  1  0
M  END
> <Smiles>
C(CCC(O)=O)(=C1S(OCCOS1(=O)=O)(=O)=O)O

> <IC50_uM>
0.223872114

> <pIC50>
6.65

> <Activity>
1

$$$$

  SciTegic10102310092D

 32 35  0  0  0  0            999 V2000
    3.1676   -7.5606    0.0000 C   0  0
    1.7006   -7.2475    0.0000 C   0  0
    0.6960   -8.3614    0.0000 C   0  0
   -0.7710   -8.0483    0.0000 C   0  0
   -1.7756   -9.1622    0.0000 C   0  0
   -1.2333   -6.6213    0.0000 C   0  0
   -0.2287   -5.5075    0.0000 C   0  0
   -0.6913   -4.0797    0.0000 S   0  0
   -2.1584   -3.7671    0.0000 O   0  0
   -1.6957   -5.1937    0.0000 O   0  0
    0.3114   -2.9665    0.0000 C   0  0
    1.8032   -3.1233    0.0000 C   0  0
    2.5551   -4.4192    0.0000 C   0  0
    1.8074   -5.7196    0.0000 O   0  0
    4.0559   -4.4171    0.0000 N   0  0
    4.8090   -5.7153    0.0000 C   0  0
    6.3098   -5.7131    0.0000 C   0  0
    7.0629   -7.0113    0.0000 N   0  0
    8.5630   -7.0113    0.0000 C   0  0
    9.3130   -8.3103    0.0000 C   0  0
    8.5631   -9.6094    0.0000 O   0  0
    7.0631   -9.6094    0.0000 C   0  0
    6.3130   -8.3104    0.0000 C   0  0
    2.4133   -1.7530    0.0000 N   0  0
    1.2990   -0.7500    0.0000 C   0  0
    1.2990    0.7500    0.0000 C   0  0
    0.0000    1.5000    0.0000 C   0  0
   -1.2990    0.7500    0.0000 C   0  0
   -2.5981    1.5000    0.0000 Cl  0  0
   -1.2990   -0.7500    0.0000 C   0  0
    0.0000   -1.5000    0.0000 C   0  0
    1.2383   -5.8206    0.0000 C   0  0
  1  2  1  0
  2  3  2  0
  3  4  1  0
  4  5  1  0
  4  6  2  0
  6  7  1  0
  7  8  1  0
  8  9  2  0
  8 10  2  0
  8 11  1  0
 11 12  2  0
 12 13  1  0
 13 14  2  0
 13 15  1  0
 15 16  1  0
 16 17  1  0
 17 18  1  0
 18 19  1  0
 19 20  1  0
 20 21  1  0
 21 22  1  0
 22 23  1  0
 23 18  1  0
 12 24  1  0
 24 25  1  0
 25 26  2  0
 26 27  1  0
 27 28  2  0
 28 29  1  0
 28 30  1  0
 30 31  2  0
 31 11  1  0
 31 25  1  0
  7 32  2  0
 32  2  1  0
M  END
> <Smiles>
Cc1cc(C)cc(S(=O)(=O)c2c(C(=O)NCCN3CCOCC3)[nH]c3ccc(Cl)cc23)c1

> <IC50_uM>
0.225

> <pIC50>
6.647817482

> <Activity>
1

$$$$

  SciTegic10102310092D

 33 36  0  0  1  0            999 V2000
    3.1676   -7.5606    0.0000 C   0  0
    1.7006   -7.2475    0.0000 C   0  0
    0.6960   -8.3614    0.0000 C   0  0
   -0.7710   -8.0483    0.0000 C   0  0
   -1.7756   -9.1622    0.0000 C   0  0
   -1.2333   -6.6213    0.0000 C   0  0
   -0.2287   -5.5075    0.0000 C   0  0
   -0.6913   -4.0797    0.0000 S   0  0
   -2.1584   -3.7671    0.0000 O   0  0
   -1.6957   -5.1937    0.0000 O   0  0
    0.3114   -2.9665    0.0000 C   0  0
    1.8032   -3.1233    0.0000 C   0  0
    2.5551   -4.4192    0.0000 C   0  0
    1.8074   -5.7196    0.0000 O   0  0
    4.0559   -4.4171    0.0000 N   0  0
    4.8090   -5.7153    0.0000 C   0  0  2  0  0  0
    4.0613   -7.0156    0.0000 C   0  0
    6.3098   -5.7131    0.0000 C   0  0
    7.0554   -4.4114    0.0000 C   0  0
    8.5554   -4.4062    0.0000 C   0  0
    9.3099   -5.7026    0.0000 C   0  0
    8.5644   -7.0043    0.0000 C   0  0
    7.0644   -7.0095    0.0000 C   0  0
    6.3190   -8.3111    0.0000 F   0  0
    2.4133   -1.7530    0.0000 N   0  0
    1.2990   -0.7500    0.0000 C   0  0
    1.2990    0.7500    0.0000 C   0  0
    0.0000    1.5000    0.0000 C   0  0
   -1.2990    0.7500    0.0000 C   0  0
   -2.5981    1.5000    0.0000 Cl  0  0
   -1.2990   -0.7500    0.0000 C   0  0
    0.0000   -1.5000    0.0000 C   0  0
    1.2383   -5.8206    0.0000 C   0  0
  1  2  1  0
  2  3  2  0
  3  4  1  0
  4  5  1  0
  4  6  2  0
  6  7  1  0
  7  8  1  0
  8  9  2  0
  8 10  2  0
  8 11  1  0
 11 12  2  0
 12 13  1  0
 13 14  2  0
 13 15  1  0
 15 16  1  0
 16 17  1  1
 16 18  1  0
 18 19  2  0
 19 20  1  0
 20 21  2  0
 21 22  1  0
 22 23  2  0
 23 18  1  0
 23 24  1  0
 12 25  1  0
 25 26  1  0
 26 27  2  0
 27 28  1  0
 28 29  2  0
 29 30  1  0
 29 31  1  0
 31 32  2  0
 32 11  1  0
 32 26  1  0
  7 33  2  0
 33  2  1  0
M  END
> <Smiles>
Cc1cc(C)cc(S(=O)(=O)c2c(C(=O)N[C@H](C)c3ccccc3F)[nH]c3ccc(Cl)cc23)c1

> <IC50_uM>
0.228

> <pIC50>
6.642065153

> <Activity>
1

$$$$

  SciTegic10102310092D

 33 36  0  0  0  0            999 V2000
    2.5981   -1.5000    0.0000 C   0  0
    1.2990   -0.7500    0.0000 C   0  0
    1.2990    0.7500    0.0000 C   0  0
    0.0000    1.5000    0.0000 C   0  0
    0.0000    3.0008    0.0000 C   0  0
    0.0000    4.5008    0.0000 N   0  0
   -1.2990    0.7500    0.0000 C   0  0
   -1.2990   -0.7500    0.0000 C   0  0
   -2.5981   -1.5000    0.0000 C   0  0
    0.0000   -1.5000    0.0000 C   0  0
    0.0031   -3.0008    0.0000 O   0  0
    1.3039   -3.7494    0.0000 C   0  0
    2.6005   -2.9949    0.0000 N   0  0
    3.9021   -3.7404    0.0000 C   0  0
    5.2008   -2.9882    0.0000 N   0  0
    6.5021   -3.7360    0.0000 C   0  0
    7.8012   -2.9860    0.0000 C   0  0
    9.1002   -3.7360    0.0000 C   0  0
    9.1002   -5.2360    0.0000 N   0  0
   10.3984   -5.9891    0.0000 C   0  0
   10.3963   -7.4900    0.0000 C   0  0
   11.6927   -8.2445    0.0000 C   0  0
   11.6875   -9.7445    0.0000 C   0  0
   10.3859  -10.4900    0.0000 C   0  0
    9.0894   -9.7355    0.0000 C   0  0
    7.7878  -10.4810    0.0000 Cl  0  0
    9.0946   -8.2355    0.0000 C   0  0
    7.8012   -5.9860    0.0000 C   0  0
    6.5021   -5.2360    0.0000 C   0  0
    3.9073   -5.2404    0.0000 N   0  0
    2.6108   -5.9949    0.0000 C   0  0
    1.3092   -5.2494    0.0000 C   0  0
    0.0128   -6.0039    0.0000 Br  0  0
  1  2  1  0
  2  3  2  0
  3  4  1  0
  4  5  1  0
  5  6  3  0
  4  7  2  0
  7  8  1  0
  8  9  1  0
  8 10  2  0
 10  2  1  0
 10 11  1  0
 11 12  1  0
 12 13  2  0
 13 14  1  0
 14 15  1  0
 15 16  1  0
 16 17  1  0
 17 18  1  0
 18 19  1  0
 19 20  1  0
 20 21  1  0
 21 22  2  0
 22 23  1  0
 23 24  2  0
 24 25  1  0
 25 26  1  0
 25 27  2  0
 27 21  1  0
 19 28  1  0
 28 29  1  0
 29 16  1  0
 14 30  2  0
 30 31  1  0
 31 32  2  0
 32 12  1  0
 32 33  1  0
M  END
> <Smiles>
Cc1cc(C#N)cc(C)c1Oc1nc(NC2CCN(Cc3cccc(Cl)c3)CC2)ncc1Br

> <IC50_uM>
0.229

> <pIC50>
6.640164518

> <Activity>
1

$$$$

  SciTegic10102310092D

 20 20  0  0  0  0            999 V2000
    1.2990   -0.7500    0.0000 C   0  0
    2.5988   -1.5004    0.0000 P   0  0  3  0  0  0
    3.8990   -0.7508    0.0000 C   0  0
    5.1988   -1.5012    0.0000 C   0  0
    6.4990   -0.7516    0.0000 O   0  0
    7.7988   -1.5020    0.0000 C   0  0
    9.0983   -0.7529    0.0000 C   0  0
    5.1983   -3.0012    0.0000 O   0  0
    3.9026    0.7500    0.0000 C   0  0
    5.2036    1.4982    0.0000 O   0  0
    5.2072    2.9990    0.0000 C   0  0
    6.5075    3.7467    0.0000 C   0  0
    2.6051    1.5027    0.0000 O   0  0
    2.5983   -3.0004    0.0000 S   0  0
    3.8975   -2.2510    0.0000 S   0  0
    1.2990    0.7500    0.0000 C   0  0
    0.0000    1.5000    0.0000 C   0  0
   -1.2990    0.7500    0.0000 C   0  0
   -1.2990   -0.7500    0.0000 C   0  0
    0.0000   -1.5000    0.0000 C   0  0
  1  2  1  0
  2  3  1  0
  3  4  1  0
  4  5  1  0
  5  6  1  0
  6  7  1  0
  4  8  2  0
  3  9  1  0
  9 10  1  0
 10 11  1  0
 11 12  1  0
  9 13  2  0
  2 14  1  4
  2 15  2  0
  1 16  2  0
 16 17  1  0
 17 18  2  0
 18 19  1  0
 19 20  2  0
 20  1  1  0
M  END
> <Smiles>
c1(P(C(C(OCC)=O)C(OCC)=O)(S)=S)ccccc1

> <IC50_uM>
0.229086765

> <pIC50>
6.640000001

> <Activity>
1

$$$$

  SciTegic10102310092D

 29 31  0  0  0  0            999 V2000
    2.5951   -3.0031    0.0000 C   0  0
    2.5973   -1.5031    0.0000 O   0  0
    1.2990   -0.7500    0.0000 C   0  0
    1.2990    0.7500    0.0000 C   0  0
    0.0000    1.5000    0.0000 C   0  0
   -1.2990    0.7500    0.0000 C   0  0
   -2.6003    1.4977    0.0000 C   0  0
   -3.8990    0.7455    0.0000 S   0  0
   -5.2003    1.4932    0.0000 C   0  0
   -6.4994    0.7432    0.0000 N   0  0
   -7.7985    1.4932    0.0000 C   0  0
   -9.0967    0.7401    0.0000 C   0  0  3  0  0  0
  -10.3977    1.4882    0.0000 C   0  0
  -11.6981    2.2359    0.0000 N   0  0
   -9.0945   -0.7608    0.0000 C   0  0
  -10.3909   -1.5154    0.0000 C   0  0
  -11.6926   -0.7699    0.0000 Cl  0  0
  -10.3857   -3.0154    0.0000 C   0  0
   -9.0840   -3.7608    0.0000 C   0  0
   -7.7876   -3.0063    0.0000 C   0  0
   -7.7928   -1.5063    0.0000 C   0  0
   -6.4964   -0.7518    0.0000 Cl  0  0
   -7.7985    2.9932    0.0000 C   0  0
   -9.0976    3.7432    0.0000 C   0  0
   -6.4995    3.7432    0.0000 C   0  0
   -6.4995    5.2432    0.0000 O   0  0
   -5.2004    2.9933    0.0000 N   0  0
   -1.2990   -0.7500    0.0000 C   0  0
    0.0000   -1.5000    0.0000 C   0  0
  1  2  1  0
  2  3  1  0
  3  4  2  0
  4  5  1  0
  5  6  2  0
  6  7  1  0
  7  8  1  0
  8  9  1  0
  9 10  2  0
 10 11  1  0
 11 12  1  0
 12 13  1  4
 13 14  3  0
 12 15  1  0
 15 16  2  0
 16 17  1  0
 16 18  1  0
 18 19  2  0
 19 20  1  0
 20 21  2  0
 21 15  1  0
 21 22  1  0
 11 23  2  0
 23 24  1  0
 23 25  1  0
 25 26  2  0
 25 27  1  0
 27  9  1  0
  6 28  1  0
 28 29  2  0
 29  3  1  0
M  END
> <Smiles>
COc1ccc(CSc2nc(C(C#N)c3c(Cl)cccc3Cl)c(C)c(=O)[nH]2)cc1

> <IC50_uM>
0.23

> <pIC50>
6.638272164

> <Activity>
1

$$$$

  SciTegic10102310092D

 27 29  0  0  0  0            999 V2000
    2.5951   -3.0031    0.0000 C   0  0
    2.5973   -1.5031    0.0000 O   0  0
    1.2990   -0.7500    0.0000 C   0  0
    1.2990    0.7500    0.0000 C   0  0
    0.0000    1.5000    0.0000 C   0  0
   -0.0031    3.0008    0.0000 C   0  0
   -1.3039    3.7494    0.0000 O   0  0
   -1.3070    5.2502    0.0000 C   0  0
   -2.6061    6.0003    0.0000 C   0  0
   -2.6061    7.5003    0.0000 C   0  0
   -1.3071    8.2503    0.0000 N   0  0
   -0.0080    7.5003    0.0000 C   0  0
    1.2933    8.2481    0.0000 N   0  0
    2.5920    7.4959    0.0000 C   0  0
    3.8936    8.2414    0.0000 C   0  0
    5.1901    7.4869    0.0000 C   0  0
    5.1849    5.9869    0.0000 C   0  0
    6.4821    5.2321    0.0000 C   0  0
    7.7786    4.4776    0.0000 N   0  0
    3.8833    5.2414    0.0000 C   0  0
    2.5869    5.9958    0.0000 C   0  0
   -0.0080    6.0003    0.0000 N   0  0
   -1.2990    0.7500    0.0000 C   0  0
   -1.2990   -0.7500    0.0000 C   0  0
   -2.5972   -1.5031    0.0000 O   0  0
   -2.5951   -3.0031    0.0000 C   0  0
    0.0000   -1.5000    0.0000 C   0  0
  1  2  1  0
  2  3  1  0
  3  4  2  0
  4  5  1  0
  5  6  1  0
  6  7  1  0
  7  8  1  0
  8  9  2  0
  9 10  1  0
 10 11  2  0
 11 12  1  0
 12 13  1  0
 13 14  1  0
 14 15  2  0
 15 16  1  0
 16 17  2  0
 17 18  1  0
 18 19  3  0
 17 20  1  0
 20 21  2  0
 21 14  1  0
 12 22  2  0
 22  8  1  0
  5 23  2  0
 23 24  1  0
 24 25  1  0
 25 26  1  0
 24 27  2  0
 27  3  1  0
M  END
> <Smiles>
COc1cc(COc2ccnc(Nc3ccc(C#N)cc3)n2)cc(OC)c1

> <IC50_uM>
0.23

> <pIC50>
6.638272164

> <Activity>
1

$$$$

  SciTegic10102310092D

 21 23  0  0  0  0            999 V2000
    1.2990   -0.7500    0.0000 O   0  0
    1.2990    0.7500    0.0000 C   0  0
    0.0000    1.5000    0.0000 C   0  0
   -1.2990    0.7500    0.0000 N   0  0
   -2.6003    1.4977    0.0000 C   0  0
   -3.8990    0.7455    0.0000 C   0  0  3  0  0  0
   -5.2007    1.4909    0.0000 C   0  0
   -5.2060    2.9909    0.0000 O   0  0
   -6.4972    0.7364    0.0000 C   0  0  3  0  0  0
   -7.8010    1.4796    0.0000 C   0  0
   -9.0971    0.7229    0.0000 N   0  0
  -10.4014    1.4638    0.0000 C   0  0
  -11.6952    0.7048    0.0000 C   0  0
  -11.6848   -0.7951    0.0000 O   0  0
  -10.3806   -1.5361    0.0000 C   0  0
   -9.0868   -0.7772    0.0000 C   0  0
   -6.4920   -0.7636    0.0000 C   0  0
   -5.1903   -1.5091    0.0000 C   0  0
   -3.8939   -0.7546    0.0000 C   0  0
   -1.2990   -0.7500    0.0000 C   0  0
    0.0000   -1.5000    0.0000 C   0  0
  1  2  1  0
  2  3  1  0
  3  4  1  0
  4  5  1  0
  6  5  1  4
  6  7  1  0
  7  8  2  0
  7  9  1  0
  9 10  1  4
 10 11  1  0
 11 12  1  0
 12 13  1  0
 13 14  1  0
 14 15  1  0
 15 16  1  0
 16 11  1  0
  9 17  1  0
 17 18  1  0
 18 19  1  0
 19  6  1  0
  4 20  1  0
 20 21  1  0
 21  1  1  0
M  END
> <Smiles>
O1CCN(CC2C(=O)C(CN3CCOCC3)CCC2)CC1

> <IC50_uM>
0.234422882

> <pIC50>
6.629999999

> <Activity>
1

$$$$

  SciTegic10102310092D

 40 42  0  0  0  0            999 V2000
    7.7854    3.0107    0.0000 C   0  0
    7.7912    1.5107    0.0000 C   0  0
    9.0933    0.7644    0.0000 C   0  0
    9.0990   -0.7364    0.0000 N   0  0
    7.8003   -1.4887    0.0000 C   0  0
    7.8029   -2.9887    0.0000 O   0  0
    6.4990   -0.7409    0.0000 C   0  0
    5.2003   -1.4932    0.0000 C   0  0
    3.8990   -0.7455    0.0000 C   0  0
    3.8964    0.7545    0.0000 O   0  0
    2.6003   -1.4977    0.0000 N   0  0
    1.2990   -0.7500    0.0000 C   0  0
    1.2990    0.7500    0.0000 C   0  0
    0.0000    1.5000    0.0000 C   0  0
   -1.2990    0.7500    0.0000 C   0  0
   -2.5987    1.5004    0.0000 C   0  0
   -2.6012    3.0004    0.0000 C   0  0
   -3.9015    3.7484    0.0000 C   0  0
   -5.1993    2.9963    0.0000 C   0  0
   -6.5018    3.7420    0.0000 O   0  0
   -7.7993    2.9876    0.0000 C   0  0
   -9.1017    3.7333    0.0000 C   0  0
  -10.3985    2.9794    0.0000 O   0  0
   -9.1067    5.2333    0.0000 O   0  0
   -5.1969    1.4963    0.0000 C   0  0
   -3.8967    0.7484    0.0000 C   0  0
   -1.2990   -0.7500    0.0000 C   0  0
    0.0000   -1.5000    0.0000 C   0  0
    0.0000   -3.0000    0.0000 Cl  0  0
   10.4003   -1.4841    0.0000 C   0  0
   10.4004   -2.9842    0.0000 C   0  0
   11.6994   -3.7342    0.0000 C   0  0
   12.9985   -2.9841    0.0000 C   0  0
   14.2982   -3.7345    0.0000 C   0  0
   14.2992   -5.2345    0.0000 C   0  0
   15.5970   -2.9841    0.0000 C   0  0
   15.5977   -4.4839    0.0000 C   0  0
   12.9984   -1.4841    0.0000 C   0  0
   11.6994   -0.7342    0.0000 C   0  0
   11.6994    0.7658    0.0000 Cl  0  0
  1  2  2  0
  2  3  1  0
  3  4  1  0
  4  5  1  0
  5  6  2  0
  5  7  1  0
  7  8  1  0
  8  9  1  0
  9 10  2  0
  9 11  1  0
 11 12  1  0
 12 13  2  0
 13 14  1  0
 14 15  2  0
 15 16  1  0
 16 17  2  0
 17 18  1  0
 18 19  2  0
 19 20  1  0
 20 21  1  0
 21 22  1  0
 22 23  2  0
 22 24  1  0
 19 25  1  0
 25 26  2  0
 26 16  1  0
 15 27  1  0
 27 28  2  0
 28 12  1  0
 28 29  1  0
  4 30  1  0
 30 31  2  0
 31 32  1  0
 32 33  2  0
 33 34  1  0
 34 35  1  0
 34 36  1  0
 34 37  1  0
 33 38  1  0
 38 39  2  0
 39 30  1  0
 39 40  1  0
M  END
> <Smiles>
C=CCN(C(=O)CCC(=O)Nc1ccc(-c2ccc(OCC(=O)O)cc2)cc1Cl)c1ccc(C(C)(C)C)cc1Cl

> <IC50_uM>
0.237

> <pIC50>
6.625251654

> <Activity>
1

$$$$

  SciTegic10102310092D

 34 37  0  0  0  0            999 V2000
    2.5981   -1.5000    0.0000 C   0  0
    1.2990   -0.7500    0.0000 C   0  0
    1.2990    0.7500    0.0000 C   0  0
    0.0000    1.5000    0.0000 C   0  0
    0.0000    3.0008    0.0000 C   0  0
    0.0000    4.5008    0.0000 N   0  0
   -1.2990    0.7500    0.0000 C   0  0
   -1.2990   -0.7500    0.0000 C   0  0
   -2.5981   -1.5000    0.0000 C   0  0
    0.0000   -1.5000    0.0000 C   0  0
    0.0031   -3.0008    0.0000 O   0  0
    1.3039   -3.7494    0.0000 C   0  0
    1.3092   -5.2494    0.0000 C   0  0
    2.6108   -5.9949    0.0000 C   0  0
    3.9073   -5.2404    0.0000 N   0  0
    3.9021   -3.7404    0.0000 C   0  0
    5.1977   -2.9829    0.0000 N   0  0
    5.1903   -1.4820    0.0000 C   0  0
    6.4841   -0.7230    0.0000 C   0  0
    6.4738    0.7770    0.0000 C   0  0
    5.1696    1.5180    0.0000 N   0  0
    5.1592    3.0187    0.0000 C   0  0
    6.4518    3.7798    0.0000 C   0  0
    6.4390    5.2798    0.0000 C   0  0
    5.1337    6.0187    0.0000 C   0  0
    3.8411    5.2577    0.0000 C   0  0
    2.5350    5.9970    0.0000 S   0  0
    1.2426    5.2356    0.0000 C   0  0
    2.5213    7.4969    0.0000 O   0  0
    1.2292    6.7353    0.0000 O   0  0
    3.8538    3.7577    0.0000 C   0  0
    3.8757    0.7590    0.0000 C   0  0
    3.8861   -0.7410    0.0000 C   0  0
    2.6004   -2.9949    0.0000 N   0  0
  1  2  1  0
  2  3  2  0
  3  4  1  0
  4  5  1  0
  5  6  3  0
  4  7  2  0
  7  8  1  0
  8  9  1  0
  8 10  2  0
 10  2  1  0
 10 11  1  0
 11 12  1  0
 12 13  2  0
 13 14  1  0
 14 15  2  0
 15 16  1  0
 16 17  1  0
 17 18  1  0
 18 19  1  0
 19 20  1  0
 20 21  1  0
 21 22  1  0
 22 23  2  0
 23 24  1  0
 24 25  2  0
 25 26  1  0
 26 27  1  0
 27 28  1  0
 27 29  2  0
 27 30  2  0
 26 31  2  0
 31 22  1  0
 21 32  1  0
 32 33  1  0
 33 18  1  0
 16 34  2  0
 34 12  1  0
M  END
> <Smiles>
Cc1cc(C#N)cc(C)c1Oc1ccnc(NC2CCN(c3cccc(S(C)(=O)=O)c3)CC2)n1

> <IC50_uM>
0.238

> <pIC50>
6.623423043

> <Activity>
1

$$$$

  SciTegic10102310092D

 10 10  0  0  0  0            999 V2000
    0.7500   -1.0323    0.0000 Pt  0  6
    1.2135    0.3943    0.0000 O   0  3
    0.0000    1.2760    0.0000 P   0  0
   -1.3101    2.0064    0.0000 O   0  5
    1.3100    2.0066    0.0000 O   0  0
   -1.2135    0.3943    0.0000 C   0  0
   -2.6401    0.8578    0.0000 O   0  0
   -0.7500   -1.0323    0.0000 O   0  3
    2.2393   -0.8531    0.0000 N   0  0
    0.1196   -2.3934    0.0000 N   0  0
  1  2  1  0
  2  3  1  0
  3  4  1  0
  3  5  2  0
  3  6  1  0
  6  7  2  0
  6  8  1  0
  8  1  1  0
  1  9  1  0
  1 10  1  0
M  CHG  4   1  -2   2   1   4  -1   8   1
M  END
> <Smiles>
[Pt-2]1([OH+]P([O-])(=O)C(=O)[OH+]1)(N)N

> <IC50_uM>
0.239883292

> <pIC50>
6.62

> <Activity>
1

$$$$

  SciTegic10102310092D

 24 27  0  0  0  0            999 V2000
   -2.7221   -4.8763    0.0000 C   0  0
   -1.5653   -3.9214    0.0000 C   0  0  3  0  0  0
   -1.8110   -2.4408    0.0000 C   0  0
   -0.6522   -1.4871    0.0000 N   0  0
   -0.8987    0.0000    0.0000 C   0  0  3  0  0  0
   -2.0541   -1.3755    0.0000 C   0  0
   -0.6052   -0.9721    0.0000 C   0  0  3  0  0  0
    0.7703   -1.5223    0.0000 C   0  0
    1.7607   -0.2751    0.0000 C   0  0  3  0  0  0
    0.3852   -0.6052    0.0000 C   0  0
   -0.6052    0.5686    0.0000 C   0  0
    0.4035    1.7790    0.0000 C   0  0  3  0  0  0
    1.7790    1.2105    0.0000 C   0  0
   -0.8987    1.3205    0.0000 C   0  0
   -0.1600   -4.4459    0.0000 C   0  0
    0.0885   -5.9252    0.0000 N   0  0
    1.4936   -6.4528    0.0000 C   0  0
    1.7401   -7.9332    0.0000 O   0  0
    3.1451   -8.4608    0.0000 C   0  0
    3.3915   -9.9405    0.0000 C   0  0
    2.6521   -5.5000    0.0000 O   0  0
   -1.0683   -6.8800    0.0000 C   0  0
   -2.4736   -6.3556    0.0000 C   0  0
   -4.1275   -4.3520    0.0000 O   0  0
  1  2  1  0
  2  3  1  4
  3  4  1  0
  5  4  1  4
  5  6  1  0
  7  6  1  4
  7  8  1  0
  9  8  1  4
  9 10  1  0
 10  5  1  0
  7 11  1  0
 12 11  1  4
 12 13  1  0
 13  9  1  0
  5 14  1  0
 14 12  1  0
  2 15  1  0
 15 16  1  0
 16 17  1  0
 17 18  1  0
 18 19  1  0
 19 20  1  0
 17 21  2  0
 16 22  1  0
 22 23  1  0
 23  1  1  0
  1 24  2  0
M  END
> <Smiles>
C1(C(CNC2(CC(CC3C2)CC4C3)C4)CN(C(OCC)=O)CC1)=O

> <IC50_uM>
0.239883292

> <pIC50>
6.62

> <Activity>
1

$$$$

  SciTegic10102310092D

 15 17  0  0  0  0            999 V2000
    1.2990   -0.7500    0.0000 C   0  0
    1.2990    0.7500    0.0000 C   0  0
    0.0000    1.5000    0.0000 N   0  0
   -1.2990    0.7500    0.0000 C   0  0
   -2.5981    1.5000    0.0000 C   0  0
   -3.8971    0.7500    0.0000 C   0  0
   -3.8971   -0.7500    0.0000 C   0  0
   -2.5981   -1.5000    0.0000 C   0  0
   -1.2990   -0.7500    0.0000 C   0  0
    0.0000   -1.5000    0.0000 C   0  0
    0.0000   -3.0000    0.0000 N   0  0
    2.5981    1.5000    0.0000 C   0  0
    3.8971    0.7500    0.0000 C   0  0
    3.8971   -0.7500    0.0000 C   0  0
    2.5981   -1.5000    0.0000 C   0  0
  1  2  2  0
  2  3  1  0
  3  4  2  0
  4  5  1  0
  5  6  2  0
  6  7  1  0
  7  8  2  0
  4  9  1  0
  9  8  1  0
  9 10  2  0
 10  1  1  0
 10 11  1  0
  2 12  1  0
 12 13  1  0
 13 14  1  0
 14 15  1  0
 15  1  1  0
M  END
> <Smiles>
c12c(nc(cccc3)c3c1N)CCCC2

> <IC50_uM>
0.239883292

> <pIC50>
6.62

> <Activity>
1

$$$$

  SciTegic10102310092D

 28 31  0  0  0  0            999 V2000
    0.8898  -10.2543    0.0000 C   0  0
    1.1659   -8.7799    0.0000 C   0  0
    2.5812   -8.2806    0.0000 C   0  0  3  0  0  0
    3.7190   -9.2594    0.0000 O   0  0
    3.4413  -10.7335    0.0000 C   0  0
    2.8570   -6.8080    0.0000 C   0  0
    4.2107   -6.1619    0.0000 C   0  0
    4.0146   -4.6747    0.0000 N   0  0
    2.5536   -4.4230    0.0000 C   0  0
    1.8032   -3.1233    0.0000 C   0  0
    2.4133   -1.7530    0.0000 N   0  0
    1.2990   -0.7500    0.0000 C   0  0
    1.2990    0.7500    0.0000 C   0  0
    0.0000    1.5000    0.0000 C   0  0
   -1.2990    0.7500    0.0000 C   0  0
   -2.5981    1.5000    0.0000 Br  0  0
   -1.2990   -0.7500    0.0000 C   0  0
    0.0000   -1.5000    0.0000 C   0  0
    0.3114   -2.9665    0.0000 C   0  0
   -0.6913   -4.0797    0.0000 S   0  0
   -0.2276   -5.5062    0.0000 O   0  0
    0.7759   -4.3916    0.0000 O   0  0
   -2.1595   -3.7683    0.0000 N   0  0
   -3.2523   -4.7770    0.0000 C   0  0
   -4.5516   -4.0276    0.0000 C   0  0
   -4.2404   -2.5602    0.0000 C   0  0
   -2.7487   -2.4028    0.0000 C   0  0
    1.8242   -5.7201    0.0000 N   0  0
  1  2  1  0
  3  2  1  4
  3  4  1  0
  4  5  1  0
  3  6  1  0
  6  7  2  0
  7  8  1  0
  8  9  2  0
  9 10  1  0
 10 11  1  0
 11 12  1  0
 12 13  2  0
 13 14  1  0
 14 15  2  0
 15 16  1  0
 15 17  1  0
 17 18  2  0
 18 12  1  0
 18 19  1  0
 19 10  2  0
 19 20  1  0
 20 21  2  0
 20 22  2  0
 20 23  1  0
 23 24  1  0
 24 25  1  0
 25 26  1  0
 26 27  1  0
 27 23  1  0
  9 28  1  0
 28  6  1  0
M  END
> <Smiles>
CCC(OC)c1cnc(-c2[nH]c3ccc(Br)cc3c2S(=O)(=O)N2CCCC2)[nH]1

> <IC50_uM>
0.24

> <pIC50>
6.619788758

> <Activity>
1

$$$$

  SciTegic10102310092D

 29 32  0  0  0  0            999 V2000
   -1.3389    6.7184    0.0000 N   0  0
   -0.0347    5.9774    0.0000 C   0  0
    1.2702    5.2360    0.0000 C   0  0
    2.5640    5.9949    0.0000 C   0  0
    3.8682    5.2539    0.0000 C   0  0
    3.8787    3.7539    0.0000 C   0  0
    5.1821    3.0099    0.0000 N   0  0
    5.1903    1.5091    0.0000 C   0  0
    6.4920    0.7636    0.0000 N   0  0
    6.4972   -0.7364    0.0000 C   0  0
    5.2007   -1.4909    0.0000 C   0  0
    3.8990   -0.7455    0.0000 C   0  0
    2.6003   -1.4977    0.0000 O   0  0
    1.2990   -0.7500    0.0000 C   0  0
    1.2990    0.7500    0.0000 C   0  0
    0.0000    1.5000    0.0000 C   0  0
   -1.2990    0.7500    0.0000 C   0  0
   -2.5981    1.5000    0.0000 C   0  0
   -3.8971    0.7500    0.0000 C   0  0
   -5.1969    1.5004    0.0000 C   0  0
   -6.4959    2.2504    0.0000 N   0  0
   -3.8971   -0.7500    0.0000 C   0  0
   -2.5981   -1.5000    0.0000 C   0  0
   -1.2990   -0.7500    0.0000 C   0  0
    0.0000   -1.5000    0.0000 C   0  0
    0.0000   -3.0000    0.0000 Br  0  0
    3.8939    0.7546    0.0000 N   0  0
    2.5847    2.9950    0.0000 C   0  0
    1.2806    3.7360    0.0000 C   0  0
  1  2  3  0
  2  3  1  0
  3  4  2  0
  4  5  1  0
  5  6  2  0
  6  7  1  0
  7  8  1  0
  8  9  2  0
  9 10  1  0
 10 11  2  0
 11 12  1  0
 12 13  1  0
 13 14  1  0
 14 15  2  0
 15 16  1  0
 16 17  2  0
 17 18  1  0
 18 19  2  0
 19 20  1  0
 20 21  3  0
 19 22  1  0
 22 23  2  0
 23 24  1  0
 24 17  1  0
 24 25  2  0
 25 14  1  0
 25 26  1  0
 12 27  2  0
 27  8  1  0
  6 28  1  0
 28 29  2  0
 29  3  1  0
M  END
> <Smiles>
N#Cc1ccc(Nc2nccc(Oc3ccc4cc(C#N)ccc4c3Br)n2)cc1

> <IC50_uM>
0.24

> <pIC50>
6.619788758

> <Activity>
1

$$$$

  SciTegic10102310092D

 23 25  0  0  0  0            999 V2000
    3.8978   -2.2504    0.0000 N   0  0
    2.5988   -1.5004    0.0000 C   0  0
    1.2990   -0.7500    0.0000 C   0  0
    1.2990    0.7500    0.0000 C   0  0
    0.0000    1.5000    0.0000 C   0  0
   -1.2990    0.7500    0.0000 C   0  0
   -2.6003    1.4977    0.0000 N   0  0
   -3.8990    0.7455    0.0000 C   0  0
   -5.2007    1.4909    0.0000 N   0  0
   -6.4972    0.7364    0.0000 C   0  0
   -6.4920   -0.7636    0.0000 C   0  0
   -5.1903   -1.5091    0.0000 C   0  0
   -5.1821   -3.0099    0.0000 N   0  0
   -3.8787   -3.7540    0.0000 C   0  0
   -3.8704   -5.2548    0.0000 C   0  0
   -2.5687   -6.0003    0.0000 C   0  0
   -2.5635   -7.5003    0.0000 C   0  0
   -3.8599   -8.2548    0.0000 C   0  0
   -5.1616   -7.5094    0.0000 C   0  0
   -5.1668   -6.0094    0.0000 N   0  0
   -3.8939   -0.7546    0.0000 N   0  0
   -1.2990   -0.7500    0.0000 C   0  0
    0.0000   -1.5000    0.0000 C   0  0
  1  2  3  0
  2  3  1  0
  3  4  2  0
  4  5  1  0
  5  6  2  0
  6  7  1  0
  7  8  1  0
  8  9  2  0
  9 10  1  0
 10 11  2  0
 11 12  1  0
 12 13  1  0
 13 14  1  0
 14 15  1  0
 15 16  2  0
 16 17  1  0
 17 18  2  0
 18 19  1  0
 19 20  2  0
 20 15  1  0
 12 21  2  0
 21  8  1  0
  6 22  1  0
 22 23  2  0
 23  3  1  0
M  END
> <Smiles>
N#Cc1ccc(Nc2nccc(NCc3ccccn3)n2)cc1

> <IC50_uM>
0.24

> <pIC50>
6.619788758

> <Activity>
1

$$$$

  SciTegic10102310092D

 32 35  0  0  0  0            999 V2000
   -1.3457    8.2218    0.0000 C   0  0
   -0.0415    7.4808    0.0000 C   0  0
    1.2523    8.2398    0.0000 C   0  0
    2.5565    7.4988    0.0000 C   0  0
    2.5670    5.9988    0.0000 C   0  0
    3.8704    5.2547    0.0000 C   0  0
    5.1655    6.0115    0.0000 O   0  0
    3.8787    3.7539    0.0000 C   0  0
    5.1821    3.0099    0.0000 S   0  0
    5.1903    1.5091    0.0000 C   0  0
    6.4920    0.7636    0.0000 N   0  0
    6.4972   -0.7364    0.0000 C   0  0
    7.7988   -1.4819    0.0000 O   0  0
    5.2007   -1.4909    0.0000 C   0  0
    5.2029   -2.9917    0.0000 C   0  0
    3.9054   -3.7444    0.0000 C   0  0
    6.5032   -3.7395    0.0000 C   0  0
    3.8990   -0.7455    0.0000 C   0  0
    2.6003   -1.4977    0.0000 C   0  0
    1.2990   -0.7500    0.0000 C   0  0
    1.2990    0.7500    0.0000 C   0  0
    0.0000    1.5000    0.0000 C   0  0
   -1.2990    0.7500    0.0000 C   0  0
   -1.2990   -0.7500    0.0000 C   0  0
   -2.5981   -1.5000    0.0000 C   0  0
   -2.5981   -3.0000    0.0000 C   0  0
   -1.2990   -3.7500    0.0000 C   0  0
    0.0000   -3.0000    0.0000 C   0  0
    0.0000   -1.5000    0.0000 C   0  0
    3.8939    0.7546    0.0000 N   0  0
    1.2731    5.2399    0.0000 C   0  0
   -0.0311    5.9809    0.0000 C   0  0
  1  2  1  0
  2  3  2  0
  3  4  1  0
  4  5  2  0
  5  6  1  0
  6  7  2  0
  6  8  1  0
  8  9  1  0
  9 10  1  0
 10 11  2  0
 11 12  1  0
 12 13  1  0
 12 14  2  0
 14 15  1  0
 15 16  1  0
 15 17  1  0
 14 18  1  0
 18 19  1  0
 19 20  1  0
 20 21  2  0
 21 22  1  0
 22 23  2  0
 23 24  1  0
 24 25  2  0
 25 26  1  0
 26 27  2  0
 27 28  1  0
 28 29  2  0
 29 20  1  0
 29 24  1  0
 18 30  2  0
 30 10  1  0
  5 31  1  0
 31 32  2  0
 32  2  1  0
M  END
> <Smiles>
Cc1ccc(C(=O)CSc2nc(O)c(C(C)C)c(Cc3cccc4ccccc34)n2)cc1

> <IC50_uM>
0.24

> <pIC50>
6.619788758

> <Activity>
1

$$$$

  SciTegic10102310092D

 33 36  0  0  0  0            999 V2000
   -1.3457    8.2218    0.0000 C   0  0
   -0.0415    7.4808    0.0000 C   0  0
   -0.0311    5.9809    0.0000 C   0  0
    1.2731    5.2399    0.0000 C   0  0
    2.5670    5.9988    0.0000 C   0  0
    3.8704    5.2547    0.0000 C   0  0
    5.1655    6.0115    0.0000 O   0  0
    3.8787    3.7539    0.0000 C   0  0
    5.1821    3.0099    0.0000 S   0  0
    5.1903    1.5091    0.0000 C   0  0
    6.4920    0.7636    0.0000 N   0  0
    6.4972   -0.7364    0.0000 C   0  0
    7.7988   -1.4819    0.0000 O   0  0
    5.2007   -1.4909    0.0000 C   0  0
    5.2029   -2.9917    0.0000 C   0  0
    3.9054   -3.7444    0.0000 C   0  0
    6.5032   -3.7395    0.0000 C   0  0
    3.8990   -0.7455    0.0000 C   0  0
    2.6003   -1.4977    0.0000 C   0  0
    1.2990   -0.7500    0.0000 C   0  0
    1.2990    0.7500    0.0000 C   0  0
    0.0000    1.5000    0.0000 C   0  0
   -1.2990    0.7500    0.0000 C   0  0
   -1.2990   -0.7500    0.0000 C   0  0
   -2.5981   -1.5000    0.0000 C   0  0
   -2.5981   -3.0000    0.0000 C   0  0
   -1.2990   -3.7500    0.0000 C   0  0
    0.0000   -3.0000    0.0000 C   0  0
    0.0000   -1.5000    0.0000 C   0  0
    3.8939    0.7546    0.0000 N   0  0
    2.5565    7.4988    0.0000 C   0  0
    3.8503    8.2578    0.0000 C   0  0
    1.2523    8.2398    0.0000 C   0  0
  1  2  1  0
  2  3  2  0
  3  4  1  0
  4  5  2  0
  5  6  1  0
  6  7  2  0
  6  8  1  0
  8  9  1  0
  9 10  1  0
 10 11  2  0
 11 12  1  0
 12 13  1  0
 12 14  2  0
 14 15  1  0
 15 16  1  0
 15 17  1  0
 14 18  1  0
 18 19  1  0
 19 20  1  0
 20 21  2  0
 21 22  1  0
 22 23  2  0
 23 24  1  0
 24 25  2  0
 25 26  1  0
 26 27  2  0
 27 28  1  0
 28 29  2  0
 29 20  1  0
 29 24  1  0
 18 30  2  0
 30 10  1  0
  5 31  1  0
 31 32  1  0
 31 33  2  0
 33  2  1  0
M  END
> <Smiles>
Cc1ccc(C(=O)CSc2nc(O)c(C(C)C)c(Cc3cccc4ccccc34)n2)c(C)c1

> <IC50_uM>
0.24

> <pIC50>
6.619788758

> <Activity>
1

$$$$

  SciTegic10102310092D

 44 47  0  0  1  0            999 V2000
   16.9185   -5.2069    0.0000 C   0  0
   15.6206   -5.9590    0.0000 O   0  0
   14.3192   -5.2115    0.0000 C   0  0
   14.3128   -3.7115    0.0000 C   0  0
   13.0105   -2.9670    0.0000 C   0  0
   11.7147   -3.7226    0.0000 C   0  0
   10.4118   -2.9777    0.0000 S   0  0
    9.1162   -3.7337    0.0000 O   0  0
    9.1092   -2.2339    0.0000 O   0  0
   10.4044   -1.4769    0.0000 N   0  0
   11.6992   -0.7179    0.0000 C   0  0
   11.6901    0.7829    0.0000 C   0  0
   12.9842    1.5415    0.0000 C   0  0
   10.8210    1.2774    0.0000 C   0  0
    9.1015   -0.7321    0.0000 C   0  0
    9.0941    0.7687    0.0000 C   0  0  1  0  0  0
    9.9578    1.2727    0.0000 O   0  0
    7.7912    1.5136    0.0000 C   0  0  2  0  0  0
    6.4933    0.7599    0.0000 C   0  0
    5.1912    1.5062    0.0000 C   0  0
    5.1833    3.0062    0.0000 C   0  0
    3.8804    3.7494    0.0000 C   0  0
    2.5852    2.9927    0.0000 C   0  0
    2.5930    1.4927    0.0000 C   0  0
    3.8960    0.7495    0.0000 C   0  0
    7.7838    3.0144    0.0000 N   0  0
    6.4808    3.7592    0.0000 C   0  0
    5.6171    3.2553    0.0000 O   0  0
    6.4735    5.2601    0.0000 C   0  0
    5.1705    6.0049    0.0000 C   0  0
    3.8762    5.2467    0.0000 C   0  0
    2.5725    5.9885    0.0000 C   0  0
    1.2782    5.2303    0.0000 O   0  0
    2.5630    7.4884    0.0000 O   0  0
    3.8573    8.2466    0.0000 C   0  0
    3.8478    9.7466    0.0000 C   0  0
    5.1420   10.5048    0.0000 C   0  0
    5.1356   12.0056    0.0000 O   0  0
    6.4310   12.7620    0.0000 C   0  0
    6.4458    9.7631    0.0000 C   0  0
    6.4553    8.2631    0.0000 C   0  0
    5.1610    7.5049    0.0000 C   0  0
   11.7211   -5.2226    0.0000 C   0  0
   13.0234   -5.9670    0.0000 C   0  0
  1  2  1  0
  2  3  1  0
  3  4  2  0
  4  5  1  0
  5  6  2  0
  6  7  1  0
  7  8  2  0
  7  9  2  0
  7 10  1  0
 10 11  1  0
 11 12  1  0
 12 13  1  0
 12 14  1  0
 10 15  1  0
 15 16  1  0
 16 17  1  6
 16 18  1  0
 18 19  1  6
 19 20  1  0
 20 21  2  0
 21 22  1  0
 22 23  2  0
 23 24  1  0
 24 25  2  0
 25 20  1  0
 18 26  1  0
 26 27  1  0
 27 28  2  0
 27 29  1  0
 29 30  1  0
 30 31  2  0
 31 32  1  0
 32 33  2  0
 32 34  1  0
 34 35  1  0
 35 36  2  0
 36 37  1  0
 37 38  1  0
 38 39  1  0
 37 40  2  0
 40 41  1  0
 41 42  2  0
 42 30  1  0
 42 35  1  0
  6 43  1  0
 43 44  2  0
 44  3  1  0
M  END
> <Smiles>
COc1ccc(S(=O)(=O)N(CC(C)C)C[C@@H](O)[C@H](Cc2ccccc2)NC(=O)Cc2cc(=O)oc3cc(OC)ccc23)cc1

> <IC50_uM>
0.2418

> <pIC50>
6.616543703

> <Activity>
1

$$$$

  SciTegic10102310092D

 25 27  0  0  0  0            999 V2000
    3.8976   -0.7553    0.0000 C   0  0
    2.5973   -1.5031    0.0000 C   0  0  3  0  0  0
    1.2990   -0.7500    0.0000 C   0  0
    1.2990    0.7500    0.0000 C   0  0
    0.0000    1.5000    0.0000 C   0  0
   -1.2990    0.7500    0.0000 N   0  0
   -1.2990   -0.7500    0.0000 C   0  0
   -2.5972   -1.5031    0.0000 N   0  0
   -2.5951   -3.0039    0.0000 C   0  0
   -3.8915   -3.7585    0.0000 C   0  0
   -3.8863   -5.2585    0.0000 C   0  0
   -2.5847   -6.0040    0.0000 C   0  0
   -2.5795   -7.5048    0.0000 C   0  0
   -2.5743   -9.0048    0.0000 N   0  0
   -1.2883   -5.2495    0.0000 C   0  0
   -1.2935   -3.7495    0.0000 C   0  0
    0.0000   -1.5000    0.0000 N   0  0
    2.5951   -3.0039    0.0000 C   0  0
    3.8915   -3.7585    0.0000 C   0  0
    5.1932   -3.0130    0.0000 F   0  0
    3.8864   -5.2585    0.0000 C   0  0
    2.5847   -6.0040    0.0000 C   0  0
    1.2883   -5.2495    0.0000 C   0  0
    1.2935   -3.7495    0.0000 C   0  0
   -0.0030   -2.9951    0.0000 F   0  0
  2  1  1  4
  2  3  1  0
  3  4  2  0
  4  5  1  0
  5  6  2  0
  6  7  1  0
  7  8  1  0
  8  9  1  0
  9 10  2  0
 10 11  1  0
 11 12  2  0
 12 13  1  0
 13 14  3  0
 12 15  1  0
 15 16  2  0
 16  9  1  0
  7 17  2  0
 17  3  1  0
  2 18  1  0
 18 19  2  0
 19 20  1  0
 19 21  1  0
 21 22  2  0
 22 23  1  0
 23 24  2  0
 24 18  1  0
 24 25  1  0
M  END
> <Smiles>
CC(c1ccnc(Nc2ccc(C#N)cc2)n1)c1c(F)cccc1F

> <IC50_uM>
0.248

> <pIC50>
6.605548319

> <Activity>
1

$$$$

  SciTegic10102310092D

 26 28  0  0  0  0            999 V2000
    2.5981   -1.5000    0.0000 C   0  0
    1.2990   -0.7500    0.0000 C   0  0
    1.2990    0.7500    0.0000 C   0  0
    0.0000    1.5000    0.0000 C   0  0
    0.0000    3.0000    0.0000 C   0  0
   -1.2990    0.7500    0.0000 C   0  0
   -2.6003    1.4977    0.0000 O   0  0
   -3.8990    0.7455    0.0000 C   0  0
   -5.2007    1.4909    0.0000 C   0  0
   -6.4972    0.7364    0.0000 C   0  0
   -7.7988    1.4819    0.0000 Cl  0  0
   -6.4920   -0.7636    0.0000 N   0  0
   -5.1903   -1.5091    0.0000 C   0  0
   -5.1821   -3.0099    0.0000 N   0  0
   -3.8787   -3.7540    0.0000 C   0  0
   -3.8682   -5.2539    0.0000 C   0  0
   -2.5640   -5.9949    0.0000 C   0  0
   -1.2702   -5.2360    0.0000 C   0  0
    0.0347   -5.9774    0.0000 C   0  0
    1.3389   -6.7184    0.0000 N   0  0
   -1.2805   -3.7360    0.0000 C   0  0
   -2.5847   -2.9950    0.0000 C   0  0
   -3.8939   -0.7546    0.0000 C   0  0
   -1.2990   -0.7500    0.0000 C   0  0
   -2.5981   -1.5000    0.0000 C   0  0
    0.0000   -1.5000    0.0000 C   0  0
  1  2  1  0
  2  3  2  0
  3  4  1  0
  4  5  1  0
  4  6  2  0
  6  7  1  0
  7  8  1  0
  8  9  2  0
  9 10  1  0
 10 11  1  0
 10 12  2  0
 12 13  1  0
 13 14  1  0
 14 15  1  0
 15 16  2  0
 16 17  1  0
 17 18  2  0
 18 19  1  0
 19 20  3  0
 18 21  1  0
 21 22  2  0
 22 15  1  0
 13 23  2  0
 23  8  1  0
  6 24  1  0
 24 25  1  0
 24 26  2  0
 26  2  1  0
M  END
> <Smiles>
Cc1cc(C)c(Oc2cc(Cl)nc(Nc3ccc(C#N)cc3)c2)c(C)c1

> <IC50_uM>
0.248

> <pIC50>
6.605548319

> <Activity>
1

$$$$

  SciTegic10102310092D

 24 27  0  0  0  0            999 V2000
    3.5145   -2.2320    0.0000 C   0  0
    2.0759   -1.8072    0.0000 C   0  0
    1.6852   -0.3846    0.0000 C   0  0  3  0  0  0
    2.6548    0.7277    0.0000 C   0  0
    4.1268    0.4395    0.0000 C   0  0
    5.1124    1.5703    0.0000 C   0  0
    4.6260    2.9892    0.0000 C   0  0
    3.1539    3.2774    0.0000 C   0  0
    2.6674    4.6963    0.0000 C   0  0
    2.1683    2.1466    0.0000 C   0  0
    1.3514    1.0778    0.0000 O   0  0
    0.0000    1.7286    0.0000 C   0  0
    0.1115    3.2255    0.0000 C   0  0
   -1.1278    4.0705    0.0000 C   0  0
   -2.4793    3.4196    0.0000 C   0  0
   -2.5914    1.9238    0.0000 C   0  0
   -1.3515    1.0777    0.0000 C   0  0
   -1.6852   -0.3847    0.0000 N   0  0
   -3.0899   -0.9120    0.0000 C   0  0
   -3.0226   -2.4105    0.0000 C   0  0
   -1.5767   -2.8095    0.0000 C   0  0
   -0.7500   -1.5574    0.0000 C   0  0
    0.7500   -1.5574    0.0000 C   0  0
    1.4008   -2.9088    0.0000 O   0  0
  1  2  1  0
  3  2  1  4
  3  4  1  0
  4  5  2  0
  5  6  1  0
  6  7  2  0
  7  8  1  0
  8  9  1  0
  8 10  2  0
 10  4  1  0
  3 11  1  0
 11 12  1  0
 12 13  2  0
 13 14  1  0
 14 15  2  0
 15 16  1  0
 16 17  2  0
 17 12  1  0
 17 18  1  0
 18 19  1  0
 19 20  2  0
 20 21  1  0
 21 22  2  0
 22 18  1  0
 22 23  1  0
 23  3  1  0
 23 24  2  0
M  END
> <Smiles>
CCC1(c2cccc(C)c2)Oc2ccccc2-n2cccc2C1=O

> <IC50_uM>
0.25

> <pIC50>
6.602059991

> <Activity>
1

$$$$

  SciTegic10102310092D

 32 36  0  0  0  0            999 V2000
    3.5145   -2.2320    0.0000 C   0  0
    2.0759   -1.8072    0.0000 C   0  0
    1.6852   -0.3846    0.0000 C   0  0  3  0  0  0
    2.6548    0.7277    0.0000 C   0  0
    4.1268    0.4395    0.0000 C   0  0
    5.1124    1.5703    0.0000 C   0  0
    4.6260    2.9892    0.0000 C   0  0
    5.6098    4.1226    0.0000 C   0  0
    5.1210    5.5416    0.0000 O   0  0
    6.1048    6.6750    0.0000 C   0  0
    5.6184    8.0940    0.0000 C   0  0
    6.6040    9.2247    0.0000 C   0  0
    8.0761    8.9366    0.0000 C   0  0
    8.5626    7.5177    0.0000 C   0  0
   10.0346    7.2295    0.0000 Cl  0  0
    7.5770    6.3869    0.0000 C   0  0
    3.1539    3.2774    0.0000 C   0  0
    2.1683    2.1466    0.0000 C   0  0
    1.3514    1.0778    0.0000 O   0  0
    0.0000    1.7286    0.0000 C   0  0
    0.1115    3.2255    0.0000 C   0  0
   -1.1278    4.0705    0.0000 C   0  0
   -2.4793    3.4196    0.0000 C   0  0
   -2.5914    1.9238    0.0000 C   0  0
   -1.3515    1.0777    0.0000 C   0  0
   -1.6852   -0.3847    0.0000 N   0  0
   -3.0899   -0.9120    0.0000 C   0  0
   -3.0226   -2.4105    0.0000 C   0  0
   -1.5767   -2.8095    0.0000 C   0  0
   -0.7500   -1.5574    0.0000 C   0  0
    0.7500   -1.5574    0.0000 C   0  0
    1.4008   -2.9088    0.0000 O   0  0
  1  2  1  0
  3  2  1  4
  3  4  1  0
  4  5  2  0
  5  6  1  0
  6  7  2  0
  7  8  1  0
  8  9  1  0
  9 10  1  0
 10 11  2  0
 11 12  1  0
 12 13  2  0
 13 14  1  0
 14 15  1  0
 14 16  2  0
 16 10  1  0
  7 17  1  0
 17 18  2  0
 18  4  1  0
  3 19  1  0
 19 20  1  0
 20 21  2  0
 21 22  1  0
 22 23  2  0
 23 24  1  0
 24 25  2  0
 25 20  1  0
 25 26  1  0
 26 27  1  0
 27 28  2  0
 28 29  1  0
 29 30  2  0
 30 26  1  0
 30 31  1  0
 31  3  1  0
 31 32  2  0
M  END
> <Smiles>
CCC1(c2ccc(COc3cccc(Cl)c3)cc2)Oc2ccccc2-n2cccc2C1=O

> <IC50_uM>
0.25

> <pIC50>
6.602059991

> <Activity>
1

$$$$

  SciTegic10102310092D

 22 24  0  0  0  0            999 V2000
    2.5981   -1.5000    0.0000 O   0  0
    1.2990   -0.7500    0.0000 C   0  0
    1.2990    0.7500    0.0000 C   0  0
    0.0000    1.5000    0.0000 C   0  0
   -0.0031    3.0008    0.0000 N   0  0
   -1.3039    3.7494    0.0000 C   0  0
   -1.3092    5.2494    0.0000 C   0  0
   -2.6108    5.9949    0.0000 C   0  0
   -3.9073    5.2404    0.0000 C   0  0
   -5.2096    5.9863    0.0000 C   0  0
   -5.2172    7.4863    0.0000 C   0  0
   -6.5200    8.2297    0.0000 C   0  0
   -7.8153    7.4732    0.0000 C   0  0
   -7.8077    5.9732    0.0000 C   0  0
   -6.5049    5.2298    0.0000 C   0  0
   -3.9021    3.7404    0.0000 C   0  0
   -2.6005    2.9949    0.0000 C   0  0
   -1.2990    0.7500    0.0000 N   0  0
   -1.2990   -0.7500    0.0000 C   0  0
   -2.5981   -1.5000    0.0000 O   0  0
    0.0000   -1.5000    0.0000 N   0  0
    0.0000   -3.0000    0.0000 O   0  0
  1  2  2  0
  2  3  1  0
  3  4  2  0
  4  5  1  0
  5  6  1  0
  6  7  2  0
  7  8  1  0
  8  9  2  0
  9 10  1  0
 10 11  2  0
 11 12  1  0
 12 13  2  0
 13 14  1  0
 14 15  2  0
 15 10  1  0
  9 16  1  0
 16 17  2  0
 17  6  1  0
  4 18  1  0
 18 19  1  0
 19 20  2  0
 19 21  1  0
 21  2  1  0
 21 22  1  0
M  END
> <Smiles>
O=c1cc(Nc2ccc(-c3ccccc3)cc2)[nH]c(=O)n1O

> <IC50_uM>
0.25

> <pIC50>
6.602059991

> <Activity>
1

$$$$

  SciTegic10102310092D

 40 42  0  0  1  0            999 V2000
    0.8867   -1.2099    0.0000 C   0  0
    0.0000    0.0000    0.0000 C   0  0
   -1.5043    0.0000    0.0000 C   0  0
   -2.3910   -1.2099    0.0000 N   0  0
   -1.9556    1.4291    0.0000 C   0  0  1  0  0  0
   -0.7521    2.3016    0.0000 O   0  0
    0.4513    1.4291    0.0000 S   0  0
    1.5553    0.4136    0.0000 O   0  0
    0.7341    2.9022    0.0000 O   0  0
   -2.4219    2.8581    0.0000 C   0  0  1  0  0  0
   -1.5393    4.0688    0.0000 C   0  0
   -0.0469    3.9105    0.0000 O   0  0
    0.8372    5.1233    0.0000 Si  0  0
    0.2289    6.4944    0.0000 C   0  0
   -0.6543    5.2822    0.0000 C   0  0
    2.3297    4.9650    0.0000 C   0  0
    3.2133    6.1771    0.0000 C   0  0
    2.9380    3.5939    0.0000 C   0  0
    3.8212    4.8061    0.0000 C   0  0
   -3.9262    2.8581    0.0000 O   0  0
   -4.3925    1.4291    0.0000 C   0  0  1  0  0  0
   -5.8923    1.4833    0.0000 N   0  0
   -6.5872    0.1520    0.0000 C   0  0
   -8.0861    0.0931    0.0000 C   0  0
   -8.7844   -1.2344    0.0000 C   0  0
   -8.8865    1.3616    0.0000 C   0  0
  -10.3854    1.3027    0.0000 O   0  0
   -8.1882    2.6891    0.0000 N   0  0
   -8.9887    3.9577    0.0000 C   0  0
   -6.6894    2.7481    0.0000 C   0  0
   -5.9906    4.0754    0.0000 O   0  0
   -3.1740    0.5415    0.0000 C   0  0  2  0  0  0
   -3.1771   -0.9566    0.0000 O   0  0
   -4.4780   -1.7051    0.0000 Si  0  0
   -5.7757   -0.9528    0.0000 C   0  0
   -4.4756   -0.2051    0.0000 C   0  0
   -4.4811   -3.2060    0.0000 C   0  0
   -5.7812   -3.9541    0.0000 C   0  0
   -3.1834   -3.9582    0.0000 C   0  0
   -4.4835   -4.7060    0.0000 C   0  0
  1  2  1  0
  2  3  2  0
  3  4  1  0
  3  5  1  0
  5  6  1  1
  6  7  1  0
  7  2  1  0
  7  8  2  0
  7  9  2  0
  5 10  1  0
 10 11  1  6
 11 12  1  0
 12 13  1  0
 13 14  1  0
 13 15  1  0
 13 16  1  0
 16 17  1  0
 16 18  1  0
 16 19  1  0
 10 20  1  0
 20 21  1  0
 21 22  1  6
 22 23  1  0
 23 24  2  0
 24 25  1  0
 24 26  1  0
 26 27  2  0
 26 28  1  0
 28 29  1  0
 28 30  1  0
 30 22  1  0
 30 31  2  0
 21 32  1  0
 32  5  1  0
 32 33  1  1
 33 34  1  0
 34 35  1  0
 34 36  1  0
 34 37  1  0
 37 38  1  0
 37 39  1  0
 37 40  1  0
M  END
> <Smiles>
CC1=C(N)[C@@]2(OS1(=O)=O)[C@@H](CO[Si](C)(C)C(C)(C)C)O[C@@H](n1cc(C)c(=O)n(C)c1=O)[C@@H]2O[Si](C)(C)C(C)(C)C

> <IC50_uM>
0.25

> <pIC50>
6.602059991

> <Activity>
1

$$$$

  SciTegic10102310092D

 27 29  0  0  0  0            999 V2000
    3.8983   -0.7566    0.0000 C   0  0
    2.5973   -1.5031    0.0000 C   0  0
    1.2990   -0.7500    0.0000 C   0  0
    1.2990    0.7500    0.0000 C   0  0
    2.5981    1.5000    0.0000 C   0  0
    0.0000    1.5000    0.0000 N   0  0
   -1.2990    0.7500    0.0000 C   0  0
   -2.5981    1.5000    0.0000 O   0  0
   -1.2990   -0.7500    0.0000 C   0  0
   -2.5972   -1.5031    0.0000 N   0  0
   -2.5951   -3.0039    0.0000 C   0  0
   -3.8933   -3.7570    0.0000 C   0  0
   -3.8934   -5.2570    0.0000 C   0  0
   -5.1924   -6.0071    0.0000 C   0  0
   -6.4914   -5.2571    0.0000 C   0  0
   -6.4915   -3.7571    0.0000 C   0  0
   -5.1925   -3.0071    0.0000 C   0  0
    0.0000   -1.5000    0.0000 C   0  0
    0.0031   -3.0008    0.0000 C   0  0
    1.3039   -3.7494    0.0000 C   0  0
    1.3092   -5.2494    0.0000 C   0  0
    2.6108   -5.9949    0.0000 C   0  0
    2.6160   -7.4949    0.0000 C   0  0
    3.9073   -5.2404    0.0000 C   0  0
    3.9021   -3.7404    0.0000 C   0  0
    5.1985   -2.9859    0.0000 C   0  0
    2.6004   -2.9949    0.0000 C   0  0
  1  2  1  0
  2  3  1  0
  3  4  2  0
  4  5  1  0
  4  6  1  0
  6  7  1  0
  7  8  2  0
  7  9  1  0
  9 10  1  0
 10 11  1  0
 11 12  1  0
 12 13  2  0
 13 14  1  0
 14 15  2  0
 15 16  1  0
 16 17  2  0
 17 12  1  0
  9 18  2  0
 18  3  1  0
 18 19  1  0
 19 20  1  0
 20 21  2  0
 21 22  1  0
 22 23  1  0
 22 24  2  0
 24 25  1  0
 25 26  1  0
 25 27  2  0
 27 20  1  0
M  END
> <Smiles>
CCc1c(C)[nH]c(=O)c(NCc2ccccc2)c1Cc1cc(C)cc(C)c1

> <IC50_uM>
0.251

> <pIC50>
6.600326279

> <Activity>
1

$$$$

  SciTegic10102310092D

 30 32  0  0  0  0            999 V2000
    3.1676   -7.5606    0.0000 C   0  0
    1.7006   -7.2475    0.0000 C   0  0
    0.6960   -8.3614    0.0000 C   0  0
   -0.7710   -8.0483    0.0000 C   0  0
   -1.7756   -9.1622    0.0000 C   0  0
   -1.2333   -6.6213    0.0000 C   0  0
   -0.2287   -5.5075    0.0000 C   0  0
   -0.6913   -4.0797    0.0000 S   0  0
   -2.1584   -3.7671    0.0000 O   0  0
   -1.6957   -5.1937    0.0000 O   0  0
    0.3114   -2.9665    0.0000 C   0  0
    1.8032   -3.1233    0.0000 C   0  0
    2.5551   -4.4192    0.0000 C   0  0
    1.8074   -5.7196    0.0000 O   0  0
    4.0559   -4.4171    0.0000 N   0  0
    4.8090   -5.7153    0.0000 C   0  0  3  0  0  0
    4.0613   -7.0156    0.0000 C   0  0
    6.3098   -5.7131    0.0000 C   0  0
    7.0629   -7.0113    0.0000 C   0  0
    6.3152   -8.3116    0.0000 N   0  0
    8.5629   -7.0091    0.0000 O   0  0
    2.4133   -1.7530    0.0000 N   0  0
    1.2990   -0.7500    0.0000 C   0  0
    1.2990    0.7500    0.0000 C   0  0
    0.0000    1.5000    0.0000 C   0  0
   -1.2990    0.7500    0.0000 C   0  0
   -2.5981    1.5000    0.0000 Cl  0  0
   -1.2990   -0.7500    0.0000 C   0  0
    0.0000   -1.5000    0.0000 C   0  0
    1.2383   -5.8206    0.0000 C   0  0
  1  2  1  0
  2  3  2  0
  3  4  1  0
  4  5  1  0
  4  6  2  0
  6  7  1  0
  7  8  1  0
  8  9  2  0
  8 10  2  0
  8 11  1  0
 11 12  2  0
 12 13  1  0
 13 14  2  0
 13 15  1  0
 15 16  1  0
 16 17  1  4
 16 18  1  0
 18 19  1  0
 19 20  1  0
 19 21  2  0
 12 22  1  0
 22 23  1  0
 23 24  2  0
 24 25  1  0
 25 26  2  0
 26 27  1  0
 26 28  1  0
 28 29  2  0
 29 11  1  0
 29 23  1  0
  7 30  2  0
 30  2  1  0
M  END
> <Smiles>
Cc1cc(C)cc(S(=O)(=O)c2c(C(=O)NC(C)CC(N)=O)[nH]c3ccc(Cl)cc23)c1

> <IC50_uM>
0.252

> <pIC50>
6.598599459

> <Activity>
1

$$$$

  SciTegic10102310092D

 23 25  0  0  0  0            999 V2000
    2.5951   -3.0031    0.0000 C   0  0
    2.5973   -1.5031    0.0000 C   0  0
    1.2990   -0.7500    0.0000 C   0  0
    1.2990    0.7500    0.0000 C   0  0
    2.5972    1.5031    0.0000 S   0  0
    2.5951    3.0039    0.0000 C   0  0
    3.8915    3.7585    0.0000 C   0  0
    3.8863    5.2585    0.0000 C   0  0
    5.1827    6.0130    0.0000 C   0  0
    2.5847    6.0040    0.0000 C   0  0
    1.2883    5.2495    0.0000 C   0  0
   -0.0134    5.9950    0.0000 C   0  0
    1.2934    3.7495    0.0000 C   0  0
    0.0000    1.5000    0.0000 N   0  0
   -0.0031    3.0008    0.0000 C   0  0
   -1.3039    3.7494    0.0000 C   0  0
   -1.9792    5.0003    0.0000 C   0  0
   -2.7246    3.6986    0.0000 C   0  0
   -1.2990    0.7500    0.0000 C   0  0
   -2.5981    1.5000    0.0000 O   0  0
   -1.2990   -0.7500    0.0000 N   0  0
    0.0000   -1.5000    0.0000 C   0  0
    0.0000   -3.0000    0.0000 O   0  0
  1  2  1  0
  2  3  1  0
  3  4  2  0
  4  5  1  0
  5  6  1  0
  6  7  2  0
  7  8  1  0
  8  9  1  0
  8 10  2  0
 10 11  1  0
 11 12  1  0
 11 13  2  0
 13  6  1  0
  4 14  1  0
 14 15  1  0
 15 16  1  0
 16 17  1  0
 17 18  1  0
 18 16  1  0
 14 19  1  0
 19 20  2  0
 19 21  1  0
 21 22  1  0
 22  3  1  0
 22 23  2  0
M  END
> <Smiles>
CCc1c(Sc2cc(C)cc(C)c2)n(CC2CC2)c(=O)[nH]c1=O

> <IC50_uM>
0.257

> <pIC50>
6.590066877

> <Activity>
1

$$$$

  SciTegic10102310092D

 24 25  0  0  0  0            999 V2000
    1.6852   -0.3846    0.0000 C   0  0
    3.1497   -0.7220    0.0000 C   0  0
    3.5900   -2.1568    0.0000 N   0  0
    5.0525   -2.4938    0.0000 S   0  0
    5.4929   -3.9285    0.0000 C   0  0
    4.4711   -5.0267    0.0000 C   0  0
    4.9112   -6.4606    0.0000 C   0  0
    6.3731   -6.7965    0.0000 C   0  0
    6.8132   -8.2305    0.0000 C   0  0
    7.3949   -5.6983    0.0000 C   0  0
    6.9548   -4.2644    0.0000 C   0  0
    6.0747   -1.3959    0.0000 O   0  0
    4.6131   -1.0596    0.0000 O   0  0
    4.1718    0.3758    0.0000 O   0  0
    1.3514    1.0778    0.0000 S   0  0
    2.7306    0.4879    0.0000 O   0  0
    1.0834    2.5536    0.0000 O   0  0
    0.0000    1.7286    0.0000 O   0  0
   -1.3515    1.0777    0.0000 C   0  0
   -1.6852   -0.3847    0.0000 C   0  0
   -0.7500   -1.5574    0.0000 O   0  0
    0.7500   -1.5574    0.0000 S   0  0
    2.2485   -1.6243    0.0000 O   0  0
   -0.1318   -2.7708    0.0000 O   0  0
  1  2  1  0
  2  3  1  0
  3  4  1  0
  4  5  1  0
  5  6  2  0
  6  7  1  0
  7  8  2  0
  8  9  1  0
  8 10  1  0
 10 11  2  0
 11  5  1  0
  4 12  2  0
  4 13  2  0
  2 14  2  0
  1 15  1  0
 15 16  2  0
 15 17  2  0
 15 18  1  0
 18 19  1  0
 19 20  1  0
 20 21  1  0
 21 22  1  0
 22  1  1  0
 22 23  2  0
 22 24  2  0
M  END
> <Smiles>
C1(C(NS(c2ccc(C)cc2)(=O)=O)=O)S(=O)(=O)OCCOS1(=O)=O

> <IC50_uM>
0.257039578

> <pIC50>
6.59

> <Activity>
1

$$$$

  SciTegic10102310092D

 31 34  0  0  0  0            999 V2000
    3.9054   -3.7444    0.0000 C   0  0
    5.2029   -2.9917    0.0000 C   0  0
    5.2007   -1.4909    0.0000 C   0  0
    6.4972   -0.7364    0.0000 C   0  0
    7.7988   -1.4819    0.0000 O   0  0
    6.4920    0.7636    0.0000 N   0  0
    5.1903    1.5091    0.0000 C   0  0
    5.1821    3.0099    0.0000 S   0  0
    3.8787    3.7539    0.0000 C   0  0
    3.8704    5.2547    0.0000 C   0  0
    5.1655    6.0115    0.0000 O   0  0
    2.5670    5.9988    0.0000 C   0  0
    2.5565    7.4988    0.0000 C   0  0
    1.2523    8.2398    0.0000 C   0  0
   -0.0415    7.4808    0.0000 C   0  0
   -1.3457    8.2218    0.0000 Cl  0  0
   -0.0311    5.9809    0.0000 C   0  0
    1.2731    5.2399    0.0000 C   0  0
    3.8939    0.7546    0.0000 N   0  0
    3.8990   -0.7455    0.0000 C   0  0
    2.6003   -1.4977    0.0000 C   0  0
    1.2990   -0.7500    0.0000 C   0  0
    1.2990    0.7500    0.0000 C   0  0
    0.0000    1.5000    0.0000 C   0  0
   -1.2990    0.7500    0.0000 C   0  0
   -1.2990   -0.7500    0.0000 C   0  0
   -2.5981   -1.5000    0.0000 C   0  0
   -2.5981   -3.0000    0.0000 C   0  0
   -1.2990   -3.7500    0.0000 C   0  0
    0.0000   -3.0000    0.0000 C   0  0
    0.0000   -1.5000    0.0000 C   0  0
  1  2  1  0
  2  3  1  0
  3  4  2  0
  4  5  1  0
  4  6  1  0
  6  7  2  0
  7  8  1  0
  8  9  1  0
  9 10  1  0
 10 11  2  0
 10 12  1  0
 12 13  2  0
 13 14  1  0
 14 15  2  0
 15 16  1  0
 15 17  1  0
 17 18  2  0
 18 12  1  0
  7 19  1  0
 19 20  2  0
 20  3  1  0
 20 21  1  0
 21 22  1  0
 22 23  2  0
 23 24  1  0
 24 25  2  0
 25 26  1  0
 26 27  2  0
 27 28  1  0
 28 29  2  0
 29 30  1  0
 30 31  2  0
 31 22  1  0
 31 26  1  0
M  END
> <Smiles>
CCc1c(O)nc(SCC(=O)c2ccc(Cl)cc2)nc1Cc1cccc2ccccc12

> <IC50_uM>
0.26

> <pIC50>
6.585026652

> <Activity>
1

$$$$

  SciTegic10102310092D

 26 29  0  0  0  0            999 V2000
    2.6030   -2.9977    0.0000 O   0  0
    2.6003   -1.4977    0.0000 C   0  0
    3.8990   -0.7455    0.0000 C   0  0
    5.2007   -1.4909    0.0000 C   0  0
    6.4972   -0.7364    0.0000 C   0  0
    6.4920    0.7636    0.0000 C   0  0
    7.7884    1.5181    0.0000 Cl  0  0
    5.1903    1.5091    0.0000 C   0  0
    3.8939    0.7546    0.0000 C   0  0
    1.2990   -0.7500    0.0000 C   0  0
    1.2990    0.7500    0.0000 C   0  0
    0.0000    1.5000    0.0000 C   0  0
   -0.0031    3.0008    0.0000 C   0  0
   -1.3039    3.7494    0.0000 C   0  0
   -1.3092    5.2494    0.0000 C   0  0
   -2.6108    5.9949    0.0000 C   0  0
   -3.9073    5.2404    0.0000 C   0  0
   -5.2089    5.9859    0.0000 O   0  0
   -3.9021    3.7404    0.0000 N   0  0
   -2.6005    2.9949    0.0000 N   0  0
   -1.2990    0.7500    0.0000 C   0  0
   -1.2990   -0.7500    0.0000 C   0  0
   -2.4133   -1.7530    0.0000 C   0  0
   -1.8032   -3.1233    0.0000 C   0  0
   -0.3114   -2.9665    0.0000 O   0  0
    0.0000   -1.5000    0.0000 C   0  0
  1  2  2  0
  2  3  1  0
  3  4  2  0
  4  5  1  0
  5  6  2  0
  6  7  1  0
  6  8  1  0
  8  9  2  0
  9  3  1  0
  2 10  1  0
 10 11  2  0
 11 12  1  0
 12 13  1  0
 13 14  1  0
 14 15  1  0
 15 16  2  0
 16 17  1  0
 17 18  2  0
 17 19  1  0
 19 20  1  0
 20 14  2  0
 12 21  2  0
 21 22  1  0
 22 23  1  0
 23 24  2  0
 24 25  1  0
 25 26  1  0
 26 10  1  0
 26 22  2  0
M  END
> <Smiles>
O=C(c1ccc(Cl)cc1)c1cc(Cc2ccc(=O)[nH]n2)cc2ccoc12

> <IC50_uM>
0.26

> <pIC50>
6.585026652

> <Activity>
1

$$$$

  SciTegic10102310092D

 25 27  0  0  0  0            999 V2000
    2.5981   -1.5000    0.0000 C   0  0
    1.2990   -0.7500    0.0000 C   0  0
    1.2990    0.7500    0.0000 C   0  0
    0.0000    1.5000    0.0000 N   0  0
   -1.2990    0.7500    0.0000 C   0  0
   -2.6003    1.4977    0.0000 N   0  0
   -3.8990    0.7455    0.0000 C   0  0
   -5.2007    1.4909    0.0000 C   0  0
   -6.4972    0.7364    0.0000 C   0  0
   -6.4920   -0.7636    0.0000 C   0  0
   -7.7891   -1.5185    0.0000 C   0  0
   -9.0855   -2.2730    0.0000 N   0  0
   -5.1903   -1.5091    0.0000 C   0  0
   -3.8939   -0.7546    0.0000 C   0  0
   -1.2990   -0.7500    0.0000 N   0  0
    0.0000   -1.5000    0.0000 C   0  0
   -0.0031   -3.0008    0.0000 C   0  0
   -1.3039   -3.7494    0.0000 C   0  0
   -1.3092   -5.2494    0.0000 C   0  0
   -0.0128   -6.0039    0.0000 F   0  0
   -2.6108   -5.9949    0.0000 C   0  0
   -3.9072   -5.2404    0.0000 C   0  0
   -3.9020   -3.7404    0.0000 C   0  0
   -2.6004   -2.9949    0.0000 C   0  0
   -2.5953   -1.4949    0.0000 F   0  0
  1  2  1  0
  2  3  2  0
  3  4  1  0
  4  5  2  0
  5  6  1  0
  6  7  1  0
  7  8  2  0
  8  9  1  0
  9 10  2  0
 10 11  1  0
 11 12  3  0
 10 13  1  0
 13 14  2  0
 14  7  1  0
  5 15  1  0
 15 16  2  0
 16  2  1  0
 16 17  1  0
 17 18  1  0
 18 19  2  0
 19 20  1  0
 19 21  1  0
 21 22  2  0
 22 23  1  0
 23 24  2  0
 24 18  1  0
 24 25  1  0
M  END
> <Smiles>
Cc1cnc(Nc2ccc(C#N)cc2)nc1Cc1c(F)cccc1F

> <IC50_uM>
0.262

> <pIC50>
6.581698709

> <Activity>
1

$$$$

  SciTegic10102310092D

 33 35  0  0  1  0            999 V2000
    0.4527   -8.1169    0.0000 C   0  0
   -0.6881   -7.1430    0.0000 C   0  0
   -1.8348   -6.1949    0.0000 C   0  0  2  0  0  0
   -3.2447   -6.6691    0.0000 C   0  0
   -4.3864   -5.6950    0.0000 O   0  0
   -5.8012   -6.1958    0.0000 P   0  0
   -4.6606   -7.1699    0.0000 O   0  0
   -6.0743   -7.6708    0.0000 O   0  0
   -6.9430   -5.2217    0.0000 O   0  0
   -8.3578   -5.7226    0.0000 P   0  0
   -7.2171   -6.6967    0.0000 O   0  0
   -8.6308   -7.1975    0.0000 O   0  0
   -9.4995   -4.7484    0.0000 O   0  0
  -10.9143   -5.2493    0.0000 P   0  0
  -12.0554   -4.2757    0.0000 O   0  0
  -12.3281   -5.7505    0.0000 O   0  0
  -11.1874   -6.7242    0.0000 O   0  0
   -0.4810   -5.5489    0.0000 O   0  0
   -0.6928   -4.0817    0.0000 C   0  0  1  0  0  0
    0.3114   -2.9665    0.0000 N   0  0
    1.8032   -3.1233    0.0000 C   0  0
    2.4133   -1.7530    0.0000 N   0  0
    1.2990   -0.7500    0.0000 C   0  0
    1.2990    0.7500    0.0000 C   0  0
    2.5981    1.5000    0.0000 N   0  0
    0.0000    1.5000    0.0000 N   0  0
   -1.2990    0.7500    0.0000 C   0  0
   -2.5981    1.5000    0.0000 F   0  0
   -1.2990   -0.7500    0.0000 N   0  0
    0.0000   -1.5000    0.0000 C   0  0
   -2.1519   -3.7886    0.0000 C   0  0
   -2.8675   -5.1069    0.0000 C   0  0  2  0  0  0
   -3.8589   -5.2376    0.0000 O   0  0
  1  2  3  0
  3  2  1  1
  3  4  1  0
  4  5  1  0
  5  6  1  0
  6  7  2  0
  6  8  1  0
  6  9  1  0
  9 10  1  0
 10 11  2  0
 10 12  1  0
 10 13  1  0
 13 14  1  0
 14 15  2  0
 14 16  1  0
 14 17  1  0
  3 18  1  0
 18 19  1  0
 19 20  1  6
 20 21  1  0
 21 22  2  0
 22 23  1  0
 23 24  2  0
 24 25  1  0
 24 26  1  0
 26 27  2  0
 27 28  1  0
 27 29  1  0
 29 30  2  0
 30 23  1  0
 30 20  1  0
 19 31  1  0
 31 32  1  0
 32  3  1  0
 32 33  1  1
M  END
> <Smiles>
C#C[C@]1(COP(=O)(O)OP(=O)(O)OP(=O)(O)O)O[C@@H](n2cnc3c(N)nc(F)nc32)C[C@@H]1O

> <IC50_uM>
0.263

> <pIC50>
6.580044252

> <Activity>
1

$$$$

  SciTegic10102310092D

 33 36  0  0  0  0            999 V2000
    2.5951   -3.0031    0.0000 C   0  0
    2.5973   -1.5031    0.0000 O   0  0
    1.2990   -0.7500    0.0000 C   0  0
    1.2990    0.7500    0.0000 C   0  0
    0.0000    1.5000    0.0000 C   0  0
   -0.0031    3.0008    0.0000 O   0  0
   -1.3039    3.7494    0.0000 C   0  0
   -1.3092    5.2494    0.0000 C   0  0
   -0.0128    6.0039    0.0000 C   0  0
   -2.6108    5.9949    0.0000 C   0  0
   -3.9073    5.2404    0.0000 C   0  0
   -5.2096    5.9863    0.0000 C   0  0
   -6.5112    6.7318    0.0000 N   0  0
   -3.9021    3.7404    0.0000 C   0  0
   -2.6005    2.9949    0.0000 C   0  0
   -2.5953    1.4949    0.0000 C   0  0
   -1.2990    0.7500    0.0000 C   0  0
   -1.2990   -0.7500    0.0000 C   0  0
   -2.5972   -1.5031    0.0000 N   0  0
   -2.5951   -3.0039    0.0000 C   0  0
   -3.8915   -3.7585    0.0000 C   0  0
   -3.8863   -5.2585    0.0000 C   0  0
   -2.5847   -6.0040    0.0000 N   0  0
   -2.5764   -7.5048    0.0000 C   0  0
   -1.2730   -8.2489    0.0000 C   0  0
   -1.2625   -9.7489    0.0000 C   0  0
    0.0417  -10.4898    0.0000 C   0  0
    1.3355   -9.7309    0.0000 C   0  0
    1.3251   -8.2309    0.0000 C   0  0
    0.0209   -7.4899    0.0000 C   0  0
   -1.2883   -5.2495    0.0000 C   0  0
   -1.2935   -3.7495    0.0000 C   0  0
    0.0000   -1.5000    0.0000 N   0  0
  1  2  1  0
  2  3  1  0
  3  4  2  0
  4  5  1  0
  5  6  1  0
  6  7  1  0
  7  8  2  0
  8  9  1  0
  8 10  1  0
 10 11  2  0
 11 12  1  0
 12 13  3  0
 11 14  1  0
 14 15  2  0
 15  7  1  0
 15 16  1  0
  5 17  2  0
 17 18  1  0
 18 19  1  0
 19 20  1  0
 20 21  1  0
 21 22  1  0
 22 23  1  0
 23 24  1  0
 24 25  1  0
 25 26  2  0
 26 27  1  0
 27 28  2  0
 28 29  1  0
 29 30  2  0
 30 25  1  0
 23 31  1  0
 31 32  1  0
 32 20  1  0
 18 33  2  0
 33  3  1  0
M  END
> <Smiles>
COc1cc(Oc2c(C)cc(C#N)cc2C)cc(NC2CCN(Cc3ccccc3)CC2)n1

> <IC50_uM>
0.264

> <pIC50>
6.578396073

> <Activity>
1

$$$$

  SciTegic10102310092D

 34 37  0  0  0  0            999 V2000
    2.5981   -1.5000    0.0000 C   0  0
    1.2990   -0.7500    0.0000 C   0  0
    1.2990    0.7500    0.0000 C   0  0
    0.0000    1.5000    0.0000 C   0  0
    0.0000    3.0008    0.0000 C   0  0
    0.0000    4.5008    0.0000 N   0  0
   -1.2990    0.7500    0.0000 C   0  0
   -1.2990   -0.7500    0.0000 C   0  0
   -2.5981   -1.5000    0.0000 C   0  0
    0.0000   -1.5000    0.0000 C   0  0
    0.0031   -3.0008    0.0000 O   0  0
    1.3039   -3.7494    0.0000 C   0  0
    1.3092   -5.2494    0.0000 C   0  0
    2.6108   -5.9949    0.0000 C   0  0
    3.9073   -5.2404    0.0000 N   0  0
    3.9021   -3.7404    0.0000 C   0  0
    5.1977   -2.9829    0.0000 N   0  0
    5.1903   -1.4820    0.0000 C   0  0
    6.4841   -0.7230    0.0000 C   0  0
    6.4738    0.7770    0.0000 C   0  0
    5.1696    1.5180    0.0000 N   0  0
    5.1592    3.0187    0.0000 C   0  0
    6.4518    3.7798    0.0000 C   0  0
    6.4390    5.2798    0.0000 C   0  0
    7.7316    6.0408    0.0000 Cl  0  0
    5.1337    6.0187    0.0000 C   0  0
    3.8411    5.2577    0.0000 C   0  0
    2.5334    5.9943    0.0000 C   0  0
    2.5181    7.4942    0.0000 N   0  0
    1.2419    5.2315    0.0000 O   0  0
    3.8538    3.7577    0.0000 C   0  0
    3.8757    0.7590    0.0000 C   0  0
    3.8861   -0.7410    0.0000 C   0  0
    2.6004   -2.9949    0.0000 N   0  0
  1  2  1  0
  2  3  2  0
  3  4  1  0
  4  5  1  0
  5  6  3  0
  4  7  2  0
  7  8  1  0
  8  9  1  0
  8 10  2  0
 10  2  1  0
 10 11  1  0
 11 12  1  0
 12 13  2  0
 13 14  1  0
 14 15  2  0
 15 16  1  0
 16 17  1  0
 17 18  1  0
 18 19  1  0
 19 20  1  0
 20 21  1  0
 21 22  1  0
 22 23  2  0
 23 24  1  0
 24 25  1  0
 24 26  2  0
 26 27  1  0
 27 28  1  0
 28 29  1  0
 28 30  2  0
 27 31  2  0
 31 22  1  0
 21 32  1  0
 32 33  1  0
 33 18  1  0
 16 34  2  0
 34 12  1  0
M  END
> <Smiles>
Cc1cc(C#N)cc(C)c1Oc1ccnc(NC2CCN(c3cc(Cl)cc(C(N)=O)c3)CC2)n1

> <IC50_uM>
0.265

> <pIC50>
6.576754126

> <Activity>
1

$$$$

  SciTegic10102310092D

 30 32  0  0  0  0            999 V2000
    3.1676   -7.5606    0.0000 C   0  0
    1.7006   -7.2475    0.0000 C   0  0
    0.6960   -8.3614    0.0000 C   0  0
   -0.7710   -8.0483    0.0000 C   0  0
   -1.7756   -9.1622    0.0000 C   0  0
   -1.2333   -6.6213    0.0000 C   0  0
   -0.2287   -5.5075    0.0000 C   0  0
   -0.6913   -4.0797    0.0000 S   0  0
   -2.1584   -3.7671    0.0000 O   0  0
   -1.6957   -5.1937    0.0000 O   0  0
    0.3114   -2.9665    0.0000 C   0  0
    1.8032   -3.1233    0.0000 C   0  0
    2.5551   -4.4192    0.0000 C   0  0
    1.8074   -5.7196    0.0000 O   0  0
    4.0559   -4.4171    0.0000 N   0  0
    4.8090   -5.7153    0.0000 C   0  0  3  0  0  0
    4.0613   -7.0156    0.0000 C   0  0
    6.3098   -5.7131    0.0000 C   0  0
    7.0575   -4.4127    0.0000 N   0  0
    7.0625   -7.0106    0.0000 O   0  0
    2.4133   -1.7530    0.0000 N   0  0
    1.2990   -0.7500    0.0000 C   0  0
    1.2990    0.7500    0.0000 C   0  0
    0.0000    1.5000    0.0000 C   0  0
   -1.2990    0.7500    0.0000 C   0  0
   -2.5981    1.5000    0.0000 Cl  0  0
   -1.2990   -0.7500    0.0000 C   0  0
   -2.5981   -1.5000    0.0000 F   0  0
    0.0000   -1.5000    0.0000 C   0  0
    1.2383   -5.8206    0.0000 C   0  0
  1  2  1  0
  2  3  2  0
  3  4  1  0
  4  5  1  0
  4  6  2  0
  6  7  1  0
  7  8  1  0
  8  9  2  0
  8 10  2  0
  8 11  1  0
 11 12  2  0
 12 13  1  0
 13 14  2  0
 13 15  1  0
 15 16  1  0
 16 17  1  4
 16 18  1  0
 18 19  1  0
 18 20  2  0
 12 21  1  0
 21 22  1  0
 22 23  2  0
 23 24  1  0
 24 25  2  0
 25 26  1  0
 25 27  1  0
 27 28  1  0
 27 29  2  0
 29 11  1  0
 29 22  1  0
  7 30  2  0
 30  2  1  0
M  END
> <Smiles>
Cc1cc(C)cc(S(=O)(=O)c2c(C(=O)NC(C)C(N)=O)[nH]c3ccc(Cl)c(F)c23)c1

> <IC50_uM>
0.27

> <pIC50>
6.568636236

> <Activity>
1

$$$$

  SciTegic10102310092D

 38 42  0  0  0  0            999 V2000
    7.6094  -10.1414    0.0000 O   0  0
    7.4205   -8.6533    0.0000 C   0  0
    8.6151   -7.7461    0.0000 O   0  0
    6.0394   -8.0726    0.0000 C   0  0
    5.6940   -6.6129    0.0000 C   0  0
    4.2151   -6.5101    0.0000 C   0  0
    3.3372   -5.2929    0.0000 C   0  0
    3.8056   -3.8679    0.0000 C   0  0
    2.5951   -3.0039    0.0000 N   0  0
    2.5973   -1.5031    0.0000 C   0  0
    1.2990   -0.7500    0.0000 C   0  0
    1.2990    0.7500    0.0000 C   0  0
    0.0000    1.5000    0.0000 C   0  0
   -1.2990    0.7500    0.0000 C   0  0
   -2.5981    1.5000    0.0000 F   0  0
   -1.2990   -0.7500    0.0000 C   0  0
    0.0000   -1.5000    0.0000 C   0  0
    1.3786   -3.8595    0.0000 C   0  0
    1.8372   -5.2877    0.0000 C   0  0
    0.9508   -6.4988    0.0000 C   0  0
   -0.5434   -6.4487    0.0000 C   0  0
   -1.3357   -7.7224    0.0000 C   0  0
   -0.6288   -9.0454    0.0000 C   0  0
   -1.4189  -10.3214    0.0000 O   0  0
   -0.7097  -11.6441    0.0000 C   0  0
   -1.4998  -12.9201    0.0000 C   0  0
   -0.7907  -14.2428    0.0000 C   0  0
   -1.5808  -15.5189    0.0000 C   0  0
   -0.8716  -16.8416    0.0000 C   0  0
   -1.6594  -18.1181    0.0000 C   0  0
   -0.9480  -19.4386    0.0000 C   0  0
    0.5514  -19.4827    0.0000 C   0  0
    1.3393  -18.2063    0.0000 C   0  0
    0.6278  -16.8858    0.0000 C   0  0
    0.8704   -9.0947    0.0000 C   0  0
    1.6627   -7.8210    0.0000 C   0  0
    3.6205   -7.8744    0.0000 N   0  0
    4.7579   -8.8522    0.0000 N   0  0
  1  2  2  0
  2  3  1  0
  2  4  1  0
  4  5  2  0
  5  6  1  0
  6  7  1  0
  7  8  2  0
  8  9  1  0
  9 10  1  0
 10 11  1  0
 11 12  2  0
 12 13  1  0
 13 14  2  0
 14 15  1  0
 14 16  1  0
 16 17  2  0
 17 11  1  0
  9 18  1  0
 18 19  2  0
 19  7  1  0
 19 20  1  0
 20 21  2  0
 21 22  1  0
 22 23  2  0
 23 24  1  0
 24 25  1  0
 25 26  1  0
 26 27  1  0
 27 28  1  0
 28 29  1  0
 29 30  2  0
 30 31  1  0
 31 32  2  0
 32 33  1  0
 33 34  2  0
 34 29  1  0
 23 35  1  0
 35 36  2  0
 36 20  1  0
  6 37  2  0
 37 38  1  0
 38  4  1  0
M  END
> <Smiles>
O=C(O)c1cc(-c2cn(Cc3ccc(F)cc3)cc2-c2ccc(OCCCCc3ccccc3)cc2)n[nH]1

> <IC50_uM>
0.27

> <pIC50>
6.568636236

> <Activity>
1

$$$$

  SciTegic10102310092D

 33 36  0  0  0  0            999 V2000
    3.1676   -7.5606    0.0000 C   0  0
    1.7006   -7.2475    0.0000 C   0  0
    0.6960   -8.3614    0.0000 C   0  0
   -0.7710   -8.0483    0.0000 C   0  0
   -1.7756   -9.1622    0.0000 C   0  0
   -1.2333   -6.6213    0.0000 C   0  0
   -0.2287   -5.5075    0.0000 C   0  0
   -0.6913   -4.0797    0.0000 S   0  0
   -2.1584   -3.7671    0.0000 O   0  0
   -1.6957   -5.1937    0.0000 O   0  0
    0.3114   -2.9665    0.0000 C   0  0
    1.8032   -3.1233    0.0000 C   0  0
    2.5551   -4.4192    0.0000 C   0  0
    1.8074   -5.7196    0.0000 O   0  0
    4.0559   -4.4171    0.0000 N   0  0
    4.8090   -5.7153    0.0000 C   0  0
    6.3098   -5.7131    0.0000 C   0  0
    7.0629   -7.0113    0.0000 C   0  0
    6.3130   -8.3104    0.0000 C   0  0
    7.0631   -9.6094    0.0000 C   0  0
    8.5631   -9.6094    0.0000 C   0  0
    9.3130   -8.3103    0.0000 C   0  0
    8.5630   -7.0113    0.0000 C   0  0
    9.3129   -5.7122    0.0000 Cl  0  0
    2.4133   -1.7530    0.0000 N   0  0
    1.2990   -0.7500    0.0000 C   0  0
    1.2990    0.7500    0.0000 C   0  0
    0.0000    1.5000    0.0000 C   0  0
   -1.2990    0.7500    0.0000 C   0  0
   -2.5981    1.5000    0.0000 Cl  0  0
   -1.2990   -0.7500    0.0000 C   0  0
    0.0000   -1.5000    0.0000 C   0  0
    1.2383   -5.8206    0.0000 C   0  0
  1  2  1  0
  2  3  2  0
  3  4  1  0
  4  5  1  0
  4  6  2  0
  6  7  1  0
  7  8  1  0
  8  9  2  0
  8 10  2  0
  8 11  1  0
 11 12  2  0
 12 13  1  0
 13 14  2  0
 13 15  1  0
 15 16  1  0
 16 17  1  0
 17 18  1  0
 18 19  2  0
 19 20  1  0
 20 21  2  0
 21 22  1  0
 22 23  2  0
 23 18  1  0
 23 24  1  0
 12 25  1  0
 25 26  1  0
 26 27  2  0
 27 28  1  0
 28 29  2  0
 29 30  1  0
 29 31  1  0
 31 32  2  0
 32 11  1  0
 32 26  1  0
  7 33  2  0
 33  2  1  0
M  END
> <Smiles>
Cc1cc(C)cc(S(=O)(=O)c2c(C(=O)NCCc3ccccc3Cl)[nH]c3ccc(Cl)cc23)c1

> <IC50_uM>
0.27

> <pIC50>
6.568636236

> <Activity>
1

$$$$

  SciTegic10102310092D

 33 36  0  0  0  0            999 V2000
    3.1676   -7.5606    0.0000 C   0  0
    1.7006   -7.2475    0.0000 C   0  0
    0.6960   -8.3614    0.0000 C   0  0
   -0.7710   -8.0483    0.0000 C   0  0
   -1.7756   -9.1622    0.0000 C   0  0
   -1.2333   -6.6213    0.0000 C   0  0
   -0.2287   -5.5075    0.0000 C   0  0
   -0.6913   -4.0797    0.0000 S   0  0
   -2.1584   -3.7671    0.0000 O   0  0
   -1.6957   -5.1937    0.0000 O   0  0
    0.3114   -2.9665    0.0000 C   0  0
    1.8032   -3.1233    0.0000 C   0  0
    2.5551   -4.4192    0.0000 C   0  0
    1.8074   -5.7196    0.0000 O   0  0
    4.0559   -4.4171    0.0000 N   0  0
    4.8090   -5.7153    0.0000 C   0  0
    6.3098   -5.7131    0.0000 C   0  0
    7.0629   -7.0113    0.0000 N   0  0
    8.5438   -7.1491    0.0000 C   0  0
    8.8557   -8.6163    0.0000 C   0  0
    7.5567   -9.3664    0.0000 C   0  0
    6.4419   -8.3627    0.0000 C   0  0
    2.4133   -1.7530    0.0000 N   0  0
    1.2990   -0.7500    0.0000 C   0  0
    1.2990    0.7500    0.0000 C   0  0
    0.0000    1.5000    0.0000 C   0  0
   -1.2990    0.7500    0.0000 C   0  0
   -2.6003    1.4977    0.0000 N   0  3
   -3.8983    0.7459    0.0000 O   0  0
   -2.6030    2.9977    0.0000 O   0  5
   -1.2990   -0.7500    0.0000 C   0  0
    0.0000   -1.5000    0.0000 C   0  0
    1.2383   -5.8206    0.0000 C   0  0
  1  2  1  0
  2  3  2  0
  3  4  1  0
  4  5  1  0
  4  6  2  0
  6  7  1  0
  7  8  1  0
  8  9  2  0
  8 10  2  0
  8 11  1  0
 11 12  2  0
 12 13  1  0
 13 14  2  0
 13 15  1  0
 15 16  1  0
 16 17  1  0
 17 18  1  0
 18 19  1  0
 19 20  2  0
 20 21  1  0
 21 22  2  0
 22 18  1  0
 12 23  1  0
 23 24  1  0
 24 25  2  0
 25 26  1  0
 26 27  2  0
 27 28  1  0
 28 29  2  0
 28 30  1  0
 27 31  1  0
 31 32  2  0
 32 11  1  0
 32 24  1  0
  7 33  2  0
 33  2  1  0
M  CHG  2  28   1  30  -1
M  END
> <Smiles>
Cc1cc(C)cc(S(=O)(=O)c2c(C(=O)NCCn3cccc3)[nH]c3ccc([N+](=O)[O-])cc23)c1

> <IC50_uM>
0.272

> <pIC50>
6.565431096

> <Activity>
1

$$$$

  SciTegic10102310092D

 25 27  0  0  0  0            999 V2000
    2.5951   -3.0031    0.0000 C   0  0
    2.5973   -1.5031    0.0000 C   0  0
    1.2990   -0.7500    0.0000 C   0  0
    1.2990    0.7500    0.0000 C   0  0
    2.5972    1.5031    0.0000 O   0  0
    2.5951    3.0039    0.0000 C   0  0
    3.8915    3.7585    0.0000 C   0  0
    3.8863    5.2585    0.0000 C   0  0
    5.1827    6.0130    0.0000 C   0  0
    2.5847    6.0040    0.0000 C   0  0
    1.2883    5.2495    0.0000 C   0  0
   -0.0134    5.9950    0.0000 C   0  0
    1.2934    3.7495    0.0000 C   0  0
    0.0000    1.5000    0.0000 N   0  0
   -0.0031    3.0008    0.0000 C   0  0
   -1.3039    3.7494    0.0000 C   0  0
   -1.4470    5.2297    0.0000 C   0  0
   -2.9153    5.5365    0.0000 C   0  0
   -3.6607    4.2349    0.0000 C   0  0
   -2.6532    3.1236    0.0000 C   0  0
   -1.2990    0.7500    0.0000 C   0  0
   -2.5981    1.5000    0.0000 O   0  0
   -1.2990   -0.7500    0.0000 N   0  0
    0.0000   -1.5000    0.0000 C   0  0
    0.0000   -3.0000    0.0000 O   0  0
  1  2  1  0
  2  3  1  0
  3  4  2  0
  4  5  1  0
  5  6  1  0
  6  7  2  0
  7  8  1  0
  8  9  1  0
  8 10  2  0
 10 11  1  0
 11 12  1  0
 11 13  2  0
 13  6  1  0
  4 14  1  0
 14 15  1  0
 15 16  1  0
 16 17  1  0
 17 18  1  0
 18 19  1  0
 19 20  1  0
 20 16  1  0
 14 21  1  0
 21 22  2  0
 21 23  1  0
 23 24  1  0
 24  3  1  0
 24 25  2  0
M  END
> <Smiles>
CCc1c(Oc2cc(C)cc(C)c2)n(CC2CCCC2)c(=O)[nH]c1=O

> <IC50_uM>
0.272

> <pIC50>
6.565431096

> <Activity>
1

$$$$

  SciTegic10102310092D

 31 34  0  0  0  0            999 V2000
    3.1676   -7.5606    0.0000 C   0  0
    1.7006   -7.2475    0.0000 C   0  0
    0.6960   -8.3614    0.0000 C   0  0
   -0.7710   -8.0483    0.0000 C   0  0
   -1.7756   -9.1622    0.0000 C   0  0
   -1.2333   -6.6213    0.0000 C   0  0
   -0.2287   -5.5075    0.0000 C   0  0
   -0.6913   -4.0797    0.0000 S   0  0
   -2.1584   -3.7671    0.0000 O   0  0
   -1.6957   -5.1937    0.0000 O   0  0
    0.3114   -2.9665    0.0000 C   0  0
    1.8032   -3.1233    0.0000 C   0  0
    2.5551   -4.4192    0.0000 C   0  0
    1.8074   -5.7196    0.0000 O   0  0
    4.0559   -4.4171    0.0000 N   0  0
    4.8090   -5.7153    0.0000 C   0  0
    6.3098   -5.7131    0.0000 C   0  0
    7.0644   -7.0095    0.0000 C   0  0
    8.5644   -7.0043    0.0000 C   0  0
    9.3099   -5.7026    0.0000 C   0  0
    8.5554   -4.4062    0.0000 C   0  0
    7.0554   -4.4114    0.0000 C   0  0
    2.4133   -1.7530    0.0000 N   0  0
    1.2990   -0.7500    0.0000 C   0  0
    1.2990    0.7500    0.0000 C   0  0
    0.0000    1.5000    0.0000 C   0  0
   -1.2990    0.7500    0.0000 C   0  0
   -2.5981    1.5000    0.0000 Br  0  0
   -1.2990   -0.7500    0.0000 C   0  0
    0.0000   -1.5000    0.0000 C   0  0
    1.2383   -5.8206    0.0000 C   0  0
  1  2  1  0
  2  3  2  0
  3  4  1  0
  4  5  1  0
  4  6  2  0
  6  7  1  0
  7  8  1  0
  8  9  2  0
  8 10  2  0
  8 11  1  0
 11 12  2  0
 12 13  1  0
 13 14  2  0
 13 15  1  0
 15 16  1  0
 16 17  1  0
 17 18  2  0
 18 19  1  0
 19 20  2  0
 20 21  1  0
 21 22  2  0
 22 17  1  0
 12 23  1  0
 23 24  1  0
 24 25  2  0
 25 26  1  0
 26 27  2  0
 27 28  1  0
 27 29  1  0
 29 30  2  0
 30 11  1  0
 30 24  1  0
  7 31  2  0
 31  2  1  0
M  END
> <Smiles>
Cc1cc(C)cc(S(=O)(=O)c2c(C(=O)NCc3ccccc3)[nH]c3ccc(Br)cc23)c1

> <IC50_uM>
0.273

> <pIC50>
6.563837353

> <Activity>
1

$$$$

  SciTegic10102310092D

 35 38  0  0  1  0            999 V2000
    3.1676   -7.5606    0.0000 C   0  0
    1.7006   -7.2475    0.0000 C   0  0
    0.6960   -8.3614    0.0000 C   0  0
   -0.7710   -8.0483    0.0000 C   0  0
   -1.7756   -9.1622    0.0000 C   0  0
   -1.2333   -6.6213    0.0000 C   0  0
   -0.2287   -5.5075    0.0000 C   0  0
   -0.6913   -4.0797    0.0000 S   0  0
   -2.1584   -3.7671    0.0000 O   0  0
   -1.6957   -5.1937    0.0000 O   0  0
    0.3114   -2.9665    0.0000 C   0  0
    1.8032   -3.1233    0.0000 C   0  0
    2.5551   -4.4192    0.0000 C   0  0
    1.8074   -5.7196    0.0000 O   0  0
    4.0559   -4.4171    0.0000 N   0  0
    4.8090   -5.7153    0.0000 C   0  0  2  0  0  0
    4.0613   -7.0156    0.0000 C   0  0
    6.3098   -5.7131    0.0000 C   0  0
    7.0575   -4.4127    0.0000 O   0  0
    7.0629   -7.0113    0.0000 N   0  0
    8.5638   -7.0091    0.0000 C   0  0
    9.3169   -8.3073    0.0000 C   0  0
   10.7977   -8.4451    0.0000 C   0  0
   11.1096   -9.9123    0.0000 C   0  0
    9.8106  -10.6624    0.0000 C   0  0
    8.6959   -9.6587    0.0000 O   0  0
    2.4133   -1.7530    0.0000 N   0  0
    1.2990   -0.7500    0.0000 C   0  0
    1.2990    0.7500    0.0000 C   0  0
    0.0000    1.5000    0.0000 C   0  0
   -1.2990    0.7500    0.0000 C   0  0
   -2.5981    1.5000    0.0000 Cl  0  0
   -1.2990   -0.7500    0.0000 C   0  0
    0.0000   -1.5000    0.0000 C   0  0
    1.2383   -5.8206    0.0000 C   0  0
  1  2  1  0
  2  3  2  0
  3  4  1  0
  4  5  1  0
  4  6  2  0
  6  7  1  0
  7  8  1  0
  8  9  2  0
  8 10  2  0
  8 11  1  0
 11 12  2  0
 12 13  1  0
 13 14  2  0
 13 15  1  0
 15 16  1  0
 16 17  1  1
 16 18  1  0
 18 19  2  0
 18 20  1  0
 20 21  1  0
 21 22  1  0
 22 23  2  0
 23 24  1  0
 24 25  2  0
 25 26  1  0
 26 22  1  0
 12 27  1  0
 27 28  1  0
 28 29  2  0
 29 30  1  0
 30 31  2  0
 31 32  1  0
 31 33  1  0
 33 34  2  0
 34 11  1  0
 34 28  1  0
  7 35  2  0
 35  2  1  0
M  END
> <Smiles>
Cc1cc(C)cc(S(=O)(=O)c2c(C(=O)N[C@H](C)C(=O)NCc3ccco3)[nH]c3ccc(Cl)cc23)c1

> <IC50_uM>
0.276

> <pIC50>
6.559090918

> <Activity>
1

$$$$

  SciTegic10102310092D

 32 35  0  0  0  0            999 V2000
    2.5981   -1.5000    0.0000 C   0  0
    1.2990   -0.7500    0.0000 C   0  0
    1.2990    0.7500    0.0000 C   0  0
    2.5972    1.5031    0.0000 O   0  0
    2.5951    3.0039    0.0000 C   0  0
    1.2934    3.7495    0.0000 C   0  0
    1.2883    5.2495    0.0000 C   0  0
    2.5847    6.0040    0.0000 C   0  0
    3.8863    5.2585    0.0000 C   0  0
    3.8915    3.7585    0.0000 C   0  0
    5.1954    3.0153    0.0000 O   0  0
    6.4915    3.7721    0.0000 C   0  0
    7.7954    3.0289    0.0000 C   0  0
    9.0914    3.7857    0.0000 N   0  0
    9.0810    5.2858    0.0000 C   0  0
   10.3748    6.0448    0.0000 C   0  0
   11.6791    5.3038    0.0000 C   0  0
   12.9729    6.0629    0.0000 O   0  0
   11.6895    3.8039    0.0000 N   0  0
   10.3957    3.0449    0.0000 C   0  0
   10.4062    1.5449    0.0000 O   0  0
    0.0000    1.5000    0.0000 C   0  0
   -1.2990    0.7500    0.0000 C   0  0
   -2.5981    1.5000    0.0000 Cl  0  0
   -1.2990   -0.7500    0.0000 C   0  0
   -2.5981   -1.5000    0.0000 C   0  0
   -2.5981   -3.0000    0.0000 C   0  0
   -1.2990   -3.7500    0.0000 C   0  0
   -1.2990   -5.2508    0.0000 C   0  0
   -1.2990   -6.7508    0.0000 N   0  0
    0.0000   -3.0000    0.0000 C   0  0
    0.0000   -1.5000    0.0000 C   0  0
  1  2  1  0
  2  3  2  0
  3  4  1  0
  4  5  1  0
  5  6  2  0
  6  7  1  0
  7  8  2  0
  8  9  1  0
  9 10  2  0
 10  5  1  0
 10 11  1  0
 11 12  1  0
 12 13  1  0
 13 14  1  0
 14 15  1  0
 15 16  2  0
 16 17  1  0
 17 18  2  0
 17 19  1  0
 19 20  1  0
 20 14  1  0
 20 21  2  0
  3 22  1  0
 22 23  2  0
 23 24  1  0
 23 25  1  0
 25 26  2  0
 26 27  1  0
 27 28  2  0
 28 29  1  0
 29 30  3  0
 28 31  1  0
 31 32  2  0
 32  2  1  0
 32 25  1  0
M  END
> <Smiles>
Cc1c(Oc2ccccc2OCCn2ccc(=O)[nH]c2=O)cc(Cl)c2ccc(C#N)cc12

> <IC50_uM>
0.28

> <pIC50>
6.552841969

> <Activity>
1

$$$$

  SciTegic10102310092D

 44 49  0  0  0  0            999 V2000
    2.5923    1.5001    0.0000 C   0  0
    3.8939    0.7546    0.0000 C   0  0
    5.1903    1.5091    0.0000 C   0  0
    6.4920    0.7636    0.0000 C   0  0
    7.7891    1.5185    0.0000 C   0  0
    9.0863    2.2734    0.0000 C   0  0
   10.3834    3.0283    0.0000 C   0  0
   11.6851    2.2828    0.0000 C   0  0
   12.9815    3.0372    0.0000 C   0  0
   12.9763    4.5372    0.0000 C   0  0
   11.6747    5.2827    0.0000 N   0  0
   10.3782    4.5283    0.0000 C   0  0
    6.4972   -0.7364    0.0000 C   0  0
    5.2007   -1.4909    0.0000 C   0  0
    5.2059   -2.9909    0.0000 C   0  0
    3.8990   -0.7455    0.0000 C   0  0
    2.6003   -1.4977    0.0000 O   0  0
    1.2990   -0.7500    0.0000 C   0  0
    1.2990    0.7500    0.0000 N   0  0
    0.0000    1.5000    0.0000 C   0  0
   -0.0031    3.0008    0.0000 N   0  0
   -1.3039    3.7494    0.0000 C   0  0
   -1.3092    5.2494    0.0000 C   0  0
   -2.6108    5.9949    0.0000 C   0  0
   -3.9073    5.2404    0.0000 N   0  0
   -5.2112    5.9836    0.0000 C   0  0
   -6.5072    5.2269    0.0000 C   0  0
   -7.8115    5.9678    0.0000 C   0  0
   -9.1053    5.2088    0.0000 C   0  0
   -9.0949    3.7089    0.0000 C   0  0
  -10.3895    2.9495    0.0000 S   0  0
  -10.3786    1.4495    0.0000 N   0  0
  -11.6941    3.6896    0.0000 O   0  0
  -11.6829    2.1899    0.0000 O   0  0
   -7.7907    2.9679    0.0000 C   0  0
   -6.4969    3.7269    0.0000 C   0  0
   -3.9021    3.7404    0.0000 C   0  0
   -2.6005    2.9949    0.0000 C   0  0
   -1.2990    0.7500    0.0000 N   0  0
   -1.2990   -0.7500    0.0000 C   0  0
   -2.4133   -1.7530    0.0000 C   0  0
   -1.8032   -3.1233    0.0000 C   0  0
   -0.3114   -2.9665    0.0000 S   0  0
    0.0000   -1.5000    0.0000 C   0  0
  1  2  1  0
  2  3  2  0
  3  4  1  0
  4  5  1  0
  5  6  3  0
  6  7  1  0
  7  8  2  0
  8  9  1  0
  9 10  2  0
 10 11  1  0
 11 12  2  0
 12  7  1  0
  4 13  2  0
 13 14  1  0
 14 15  1  0
 14 16  2  0
 16  2  1  0
 16 17  1  0
 17 18  1  0
 18 19  2  0
 19 20  1  0
 20 21  1  0
 21 22  1  0
 22 23  1  0
 23 24  1  0
 24 25  1  0
 25 26  1  0
 26 27  1  0
 27 28  2  0
 28 29  1  0
 29 30  2  0
 30 31  1  0
 31 32  1  0
 31 33  2  0
 31 34  2  0
 30 35  1  0
 35 36  2  0
 36 27  1  0
 25 37  1  0
 37 38  1  0
 38 22  1  0
 20 39  2  0
 39 40  1  0
 40 41  1  0
 41 42  2  0
 42 43  1  0
 43 44  1  0
 44 18  1  0
 44 40  2  0
M  END
> <Smiles>
Cc1cc(C#Cc2cccnc2)cc(C)c1Oc1nc(NC2CCN(Cc3ccc(S(N)(=O)=O)cc3)CC2)nc2ccsc12

> <IC50_uM>
0.28

> <pIC50>
6.552841969

> <Activity>
1

$$$$

  SciTegic10102310092D

 27 31  0  0  0  0            999 V2000
   -2.1584   -3.7671    0.0000 O   0  0
   -0.6913   -4.0797    0.0000 S   0  0
   -1.1543   -2.6530    0.0000 O   0  0
    0.3114   -2.9665    0.0000 C   0  0
    1.8032   -3.1233    0.0000 C   0  0
    2.5536   -4.4230    0.0000 C   0  0
    2.0412   -5.8141    0.0000 N   0  0
    3.2305   -6.7268    0.0000 C   0  0
    3.3479   -8.2222    0.0000 C   0  0
    4.7016   -8.8683    0.0000 C   0  0
    5.9380   -8.0190    0.0000 C   0  0
    5.8206   -6.5236    0.0000 C   0  0
    4.4669   -5.8775    0.0000 C   0  0
    4.0417   -4.4398    0.0000 N   0  0
    2.4133   -1.7530    0.0000 N   0  0
    1.2990   -0.7500    0.0000 C   0  0
    1.2990    0.7500    0.0000 C   0  0
    0.0000    1.5000    0.0000 C   0  0
   -1.2990    0.7500    0.0000 C   0  0
   -2.5981    1.5000    0.0000 Br  0  0
   -1.2990   -0.7500    0.0000 C   0  0
    0.0000   -1.5000    0.0000 C   0  0
   -0.2287   -5.5075    0.0000 N   0  0
   -1.1182   -6.6994    0.0000 C   0  0
   -0.2375   -7.9136    0.0000 C   0  0
    1.1895   -7.4513    0.0000 C   0  0
    1.1907   -5.9513    0.0000 C   0  0
  1  2  2  0
  2  3  2  0
  2  4  1  0
  4  5  2  0
  5  6  1  0
  6  7  2  0
  7  8  1  0
  8  9  2  0
  9 10  1  0
 10 11  2  0
 11 12  1  0
 12 13  2  0
 13  8  1  0
 13 14  1  0
 14  6  1  0
  5 15  1  0
 15 16  1  0
 16 17  2  0
 17 18  1  0
 18 19  2  0
 19 20  1  0
 19 21  1  0
 21 22  2  0
 22  4  1  0
 22 16  1  0
  2 23  1  0
 23 24  1  0
 24 25  1  0
 25 26  1  0
 26 27  1  0
 27 23  1  0
M  END
> <Smiles>
O=S(=O)(c1c(-c2nc3ccccc3[nH]2)[nH]c2ccc(Br)cc12)N1CCCC1

> <IC50_uM>
0.28

> <pIC50>
6.552841969

> <Activity>
1

$$$$

  SciTegic10102310092D

 27 29  0  0  0  0            999 V2000
    2.5981   -1.5000    0.0000 C   0  0
    1.2990   -0.7500    0.0000 C   0  0
    1.2990    0.7500    0.0000 C   0  0
    2.5981    1.5000    0.0000 N   0  0
    0.0000    1.5000    0.0000 N   0  0
   -1.2990    0.7500    0.0000 C   0  0
   -2.6003    1.4977    0.0000 N   0  0
   -3.8990    0.7455    0.0000 C   0  0
   -5.2007    1.4909    0.0000 C   0  0
   -6.4972    0.7364    0.0000 C   0  0
   -6.4920   -0.7636    0.0000 C   0  0
   -7.7891   -1.5185    0.0000 C   0  0
   -9.0855   -2.2730    0.0000 N   0  0
   -5.1903   -1.5091    0.0000 C   0  0
   -3.8939   -0.7546    0.0000 C   0  0
   -1.2990   -0.7500    0.0000 N   0  0
    0.0000   -1.5000    0.0000 C   0  0
   -0.0031   -3.0008    0.0000 C   0  0  3  0  0  0
    1.2947   -3.7531    0.0000 C   0  0
   -1.3039   -3.7494    0.0000 C   0  0
   -1.3092   -5.2494    0.0000 C   0  0
   -0.0128   -6.0039    0.0000 F   0  0
   -2.6108   -5.9949    0.0000 C   0  0
   -3.9072   -5.2404    0.0000 C   0  0
   -3.9020   -3.7404    0.0000 C   0  0
   -2.6004   -2.9949    0.0000 C   0  0
   -2.5953   -1.4949    0.0000 F   0  0
  1  2  1  0
  2  3  2  0
  3  4  1  0
  3  5  1  0
  5  6  2  0
  6  7  1  0
  7  8  1  0
  8  9  2  0
  9 10  1  0
 10 11  2  0
 11 12  1  0
 12 13  3  0
 11 14  1  0
 14 15  2  0
 15  8  1  0
  6 16  1  0
 16 17  2  0
 17  2  1  0
 17 18  1  0
 18 19  1  4
 18 20  1  0
 20 21  2  0
 21 22  1  0
 21 23  1  0
 23 24  2  0
 24 25  1  0
 25 26  2  0
 26 20  1  0
 26 27  1  0
M  END
> <Smiles>
Cc1c(N)nc(Nc2ccc(C#N)cc2)nc1C(C)c1c(F)cccc1F

> <IC50_uM>
0.282

> <pIC50>
6.549750892

> <Activity>
1

$$$$

  SciTegic10102310092D

 35 39  0  0  0  0            999 V2000
    3.1676   -7.5606    0.0000 C   0  0
    1.7006   -7.2475    0.0000 C   0  0
    0.6960   -8.3614    0.0000 C   0  0
   -0.7710   -8.0483    0.0000 C   0  0
   -1.7756   -9.1622    0.0000 C   0  0
   -1.2333   -6.6213    0.0000 C   0  0
   -0.2287   -5.5075    0.0000 C   0  0
   -0.6913   -4.0797    0.0000 S   0  0
   -2.1584   -3.7671    0.0000 O   0  0
   -1.6957   -5.1937    0.0000 O   0  0
    0.3114   -2.9665    0.0000 C   0  0
    1.8032   -3.1233    0.0000 C   0  0
    2.5551   -4.4192    0.0000 C   0  0
    1.8074   -5.7196    0.0000 O   0  0
    4.0559   -4.4171    0.0000 N   0  0
    4.8090   -5.7153    0.0000 C   0  0
    6.3098   -5.7131    0.0000 C   0  0
    7.0644   -7.0095    0.0000 C   0  0
    8.5644   -7.0043    0.0000 C   0  0
    9.3099   -5.7026    0.0000 C   0  0
   10.7753   -5.3861    0.0000 N   0  0
   10.9269   -3.8938    0.0000 C   0  0
   12.2233   -3.1392    0.0000 N   0  0
    9.5545   -3.2884    0.0000 N   0  0
    8.5554   -4.4062    0.0000 C   0  0
    7.0554   -4.4114    0.0000 C   0  0
    2.4133   -1.7530    0.0000 N   0  0
    1.2990   -0.7500    0.0000 C   0  0
    1.2990    0.7500    0.0000 C   0  0
    0.0000    1.5000    0.0000 C   0  0
   -1.2990    0.7500    0.0000 C   0  0
   -2.5981    1.5000    0.0000 Cl  0  0
   -1.2990   -0.7500    0.0000 C   0  0
    0.0000   -1.5000    0.0000 C   0  0
    1.2383   -5.8206    0.0000 C   0  0
  1  2  1  0
  2  3  2  0
  3  4  1  0
  4  5  1  0
  4  6  2  0
  6  7  1  0
  7  8  1  0
  8  9  2  0
  8 10  2  0
  8 11  1  0
 11 12  2  0
 12 13  1  0
 13 14  2  0
 13 15  1  0
 15 16  1  0
 16 17  1  0
 17 18  2  0
 18 19  1  0
 19 20  2  0
 20 21  1  0
 21 22  2  0
 22 23  1  0
 22 24  1  0
 24 25  1  0
 25 20  1  0
 25 26  2  0
 26 17  1  0
 12 27  1  0
 27 28  1  0
 28 29  2  0
 29 30  1  0
 30 31  2  0
 31 32  1  0
 31 33  1  0
 33 34  2  0
 34 11  1  0
 34 28  1  0
  7 35  2  0
 35  2  1  0
M  END
> <Smiles>
Cc1cc(C)cc(S(=O)(=O)c2c(C(=O)NCc3ccc4nc(N)[nH]c4c3)[nH]c3ccc(Cl)cc23)c1

> <IC50_uM>
0.284

> <pIC50>
6.54668166

> <Activity>
1

$$$$

  SciTegic10102310092D

 32 35  0  0  0  0            999 V2000
    3.1676   -7.5606    0.0000 C   0  0
    1.7006   -7.2475    0.0000 C   0  0
    0.6960   -8.3614    0.0000 C   0  0
   -0.7710   -8.0483    0.0000 C   0  0
   -1.7756   -9.1622    0.0000 C   0  0
   -1.2333   -6.6213    0.0000 C   0  0
   -0.2287   -5.5075    0.0000 C   0  0
   -0.6913   -4.0797    0.0000 S   0  0
   -2.1584   -3.7671    0.0000 O   0  0
   -1.6957   -5.1937    0.0000 O   0  0
    0.3114   -2.9665    0.0000 C   0  0
    1.8032   -3.1233    0.0000 C   0  0
    2.5551   -4.4192    0.0000 C   0  0
    1.8074   -5.7196    0.0000 O   0  0
    4.0559   -4.4171    0.0000 N   0  0
    4.8090   -5.7153    0.0000 C   0  0
    6.3090   -5.7153    0.0000 C   0  0
    7.0591   -7.0143    0.0000 C   0  0
    6.3092   -8.3134    0.0000 C   0  0
    4.8092   -8.3134    0.0000 C   0  0
    4.0588   -9.6132    0.0000 C   0  0
    3.3089  -10.9123    0.0000 N   0  0
    4.0591   -7.0144    0.0000 C   0  0
    2.4133   -1.7530    0.0000 N   0  0
    1.2990   -0.7500    0.0000 C   0  0
    1.2990    0.7500    0.0000 C   0  0
    0.0000    1.5000    0.0000 C   0  0
   -1.2990    0.7500    0.0000 C   0  0
   -2.5981    1.5000    0.0000 Cl  0  0
   -1.2990   -0.7500    0.0000 C   0  0
    0.0000   -1.5000    0.0000 C   0  0
    1.2383   -5.8206    0.0000 C   0  0
  1  2  1  0
  2  3  2  0
  3  4  1  0
  4  5  1  0
  4  6  2  0
  6  7  1  0
  7  8  1  0
  8  9  2  0
  8 10  2  0
  8 11  1  0
 11 12  2  0
 12 13  1  0
 13 14  2  0
 13 15  1  0
 15 16  1  0
 16 17  2  0
 17 18  1  0
 18 19  2  0
 19 20  1  0
 20 21  1  0
 21 22  3  0
 20 23  2  0
 23 16  1  0
 12 24  1  0
 24 25  1  0
 25 26  2  0
 26 27  1  0
 27 28  2  0
 28 29  1  0
 28 30  1  0
 30 31  2  0
 31 11  1  0
 31 25  1  0
  7 32  2  0
 32  2  1  0
M  END
> <Smiles>
Cc1cc(C)cc(S(=O)(=O)c2c(C(=O)Nc3cccc(C#N)c3)[nH]c3ccc(Cl)cc23)c1

> <IC50_uM>
0.287

> <pIC50>
6.542118103

> <Activity>
1

$$$$

  SciTegic10102310092D

 31 34  0  0  0  0            999 V2000
    2.5981   -1.5000    0.0000 C   0  0
    1.2990   -0.7500    0.0000 C   0  0
    1.2990    0.7500    0.0000 C   0  0
    0.0000    1.5000    0.0000 C   0  0
    0.0000    3.0000    0.0000 C   0  0
   -1.2990    0.7500    0.0000 C   0  0
   -2.6003    1.4977    0.0000 O   0  0
   -3.8990    0.7455    0.0000 C   0  0
   -5.2007    1.4909    0.0000 C   0  0
   -6.4972    0.7364    0.0000 C   0  0
   -7.7988    1.4819    0.0000 Cl  0  0
   -6.4920   -0.7636    0.0000 N   0  0
   -5.1903   -1.5091    0.0000 C   0  0
   -5.1821   -3.0099    0.0000 N   0  0
   -3.8787   -3.7540    0.0000 C   0  0
   -3.8682   -5.2539    0.0000 C   0  0
   -2.5640   -5.9949    0.0000 C   0  0
   -1.2702   -5.2360    0.0000 N   0  0
    0.0363   -5.9747    0.0000 C   0  0
    1.3297   -5.2135    0.0000 C   0  0
    2.6365   -5.9499    0.0000 C   0  0
    3.9277   -5.1864    0.0000 C   0  0
    3.9122   -3.6865    0.0000 C   0  0
    2.6054   -2.9500    0.0000 C   0  0
    1.3142   -3.7135    0.0000 C   0  0
   -1.2805   -3.7360    0.0000 C   0  0
   -2.5847   -2.9950    0.0000 C   0  0
   -3.8939   -0.7546    0.0000 C   0  0
   -1.2990   -0.7500    0.0000 C   0  0
   -2.5981   -1.5000    0.0000 C   0  0
    0.0000   -1.5000    0.0000 C   0  0
  1  2  1  0
  2  3  2  0
  3  4  1  0
  4  5  1  0
  4  6  2  0
  6  7  1  0
  7  8  1  0
  8  9  2  0
  9 10  1  0
 10 11  1  0
 10 12  2  0
 12 13  1  0
 13 14  1  0
 14 15  1  0
 15 16  1  0
 16 17  1  0
 17 18  1  0
 18 19  1  0
 19 20  1  0
 20 21  2  0
 21 22  1  0
 22 23  2  0
 23 24  1  0
 24 25  2  0
 25 20  1  0
 18 26  1  0
 26 27  1  0
 27 15  1  0
 13 28  2  0
 28  8  1  0
  6 29  1  0
 29 30  1  0
 29 31  2  0
 31  2  1  0
M  END
> <Smiles>
Cc1cc(C)c(Oc2cc(Cl)nc(NC3CCN(Cc4ccccc4)CC3)c2)c(C)c1

> <IC50_uM>
0.287

> <pIC50>
6.542118103

> <Activity>
1

$$$$

  SciTegic10102310092D

 16 17  0  0  0  0            999 V2000
    5.2526   -1.3618    0.0000 O   0  0
    3.8990   -0.7455    0.0000 C   0  0  3  0  0  0
    2.6003   -1.4977    0.0000 C   0  0
    1.2990   -0.7500    0.0000 N   0  0
    1.2990    0.7500    0.0000 C   0  0
    0.0000    1.5000    0.0000 C   0  0
   -1.2990    0.7500    0.0000 C   0  0
   -2.5981    1.5000    0.0000 N   0  0
   -1.2990   -0.7500    0.0000 N   0  0
    0.0000   -1.5000    0.0000 C   0  0
    0.0000   -3.0000    0.0000 O   0  0
    4.0317    0.7359    0.0000 O   0  0
    5.4979    1.0528    0.0000 C   0  0
    6.2524   -0.2436    0.0000 C   0  0  3  0  0  0
    7.7426   -0.3981    0.0000 C   0  0
    8.3555   -1.7672    0.0000 O   0  0
  1  2  1  0
  2  3  1  4
  3  4  1  0
  4  5  1  0
  5  6  2  0
  6  7  1  0
  7  8  2  0
  7  9  1  0
  4 10  1  0
 10  9  1  0
 10 11  2  0
  2 12  1  0
 12 13  1  0
 13 14  1  0
 14  1  1  0
 14 15  1  4
 15 16  1  0
M  END
> <Smiles>
O1C(CN(C=CC(=N)N2)C2=O)OCC1CO

> <IC50_uM>
0.28840315

> <pIC50>
6.54

> <Activity>
1

$$$$

  SciTegic10102310092D

 24 26  0  0  0  0            999 V2000
    2.5951   -3.0031    0.0000 C   0  0
    2.5973   -1.5031    0.0000 C   0  0
    1.2990   -0.7500    0.0000 C   0  0
    1.2990    0.7500    0.0000 C   0  0
    2.5972    1.5031    0.0000 O   0  0
    2.5951    3.0039    0.0000 C   0  0
    3.8915    3.7585    0.0000 C   0  0
    3.8863    5.2585    0.0000 C   0  0
    5.1827    6.0130    0.0000 C   0  0
    2.5847    6.0040    0.0000 C   0  0
    1.2883    5.2495    0.0000 C   0  0
   -0.0134    5.9950    0.0000 C   0  0
    1.2934    3.7495    0.0000 C   0  0
    0.0000    1.5000    0.0000 N   0  0
   -0.0031    3.0008    0.0000 C   0  0
   -1.3039    3.7494    0.0000 C   0  0
   -1.6524    5.1712    0.0000 C   0  0
   -3.0999    4.7779    0.0000 C   0  0
   -2.7066    3.3304    0.0000 C   0  0
   -1.2990    0.7500    0.0000 C   0  0
   -2.5981    1.5000    0.0000 O   0  0
   -1.2990   -0.7500    0.0000 N   0  0
    0.0000   -1.5000    0.0000 C   0  0
    0.0000   -3.0000    0.0000 O   0  0
  1  2  1  0
  2  3  1  0
  3  4  2  0
  4  5  1  0
  5  6  1  0
  6  7  2  0
  7  8  1  0
  8  9  1  0
  8 10  2  0
 10 11  1  0
 11 12  1  0
 11 13  2  0
 13  6  1  0
  4 14  1  0
 14 15  1  0
 15 16  1  0
 16 17  1  0
 17 18  1  0
 18 19  1  0
 19 16  1  0
 14 20  1  0
 20 21  2  0
 20 22  1  0
 22 23  1  0
 23  3  1  0
 23 24  2  0
M  END
> <Smiles>
CCc1c(Oc2cc(C)cc(C)c2)n(CC2CCC2)c(=O)[nH]c1=O

> <IC50_uM>
0.289

> <pIC50>
6.539102157

> <Activity>
1

$$$$

  SciTegic10102310092D

 44 49  0  0  0  0            999 V2000
    2.5923    1.5001    0.0000 C   0  0
    3.8939    0.7546    0.0000 C   0  0
    5.1903    1.5091    0.0000 C   0  0
    6.4920    0.7636    0.0000 C   0  0
    7.7891    1.5185    0.0000 C   0  0
    9.0863    2.2734    0.0000 C   0  0
   10.3834    3.0283    0.0000 C   0  0
   11.6851    2.2828    0.0000 C   0  0
   12.9815    3.0372    0.0000 C   0  0
   12.9763    4.5372    0.0000 C   0  0
   11.6747    5.2827    0.0000 C   0  0
   10.3782    4.5283    0.0000 N   0  0
    6.4972   -0.7364    0.0000 C   0  0
    5.2007   -1.4909    0.0000 C   0  0
    5.2059   -2.9909    0.0000 C   0  0
    3.8990   -0.7455    0.0000 C   0  0
    2.6003   -1.4977    0.0000 O   0  0
    1.2990   -0.7500    0.0000 C   0  0
    1.2990    0.7500    0.0000 N   0  0
    0.0000    1.5000    0.0000 C   0  0
   -0.0031    3.0008    0.0000 N   0  0
   -1.3039    3.7494    0.0000 C   0  0
   -1.3092    5.2494    0.0000 C   0  0
   -2.6108    5.9949    0.0000 C   0  0
   -3.9073    5.2404    0.0000 N   0  0
   -5.2112    5.9836    0.0000 C   0  0
   -6.5072    5.2269    0.0000 C   0  0
   -7.8115    5.9678    0.0000 C   0  0
   -9.1053    5.2088    0.0000 C   0  0
   -9.0949    3.7089    0.0000 C   0  0
  -10.3895    2.9495    0.0000 S   0  0
  -10.3786    1.4495    0.0000 N   0  0
  -11.6941    3.6896    0.0000 O   0  0
  -11.6829    2.1899    0.0000 O   0  0
   -7.7907    2.9679    0.0000 C   0  0
   -6.4969    3.7269    0.0000 C   0  0
   -3.9021    3.7404    0.0000 C   0  0
   -2.6005    2.9949    0.0000 C   0  0
   -1.2990    0.7500    0.0000 N   0  0
   -1.2990   -0.7500    0.0000 C   0  0
   -2.4133   -1.7530    0.0000 C   0  0
   -1.8032   -3.1233    0.0000 C   0  0
   -0.3114   -2.9665    0.0000 S   0  0
    0.0000   -1.5000    0.0000 C   0  0
  1  2  1  0
  2  3  2  0
  3  4  1  0
  4  5  1  0
  5  6  3  0
  6  7  1  0
  7  8  2  0
  8  9  1  0
  9 10  2  0
 10 11  1  0
 11 12  2  0
 12  7  1  0
  4 13  2  0
 13 14  1  0
 14 15  1  0
 14 16  2  0
 16  2  1  0
 16 17  1  0
 17 18  1  0
 18 19  2  0
 19 20  1  0
 20 21  1  0
 21 22  1  0
 22 23  1  0
 23 24  1  0
 24 25  1  0
 25 26  1  0
 26 27  1  0
 27 28  2  0
 28 29  1  0
 29 30  2  0
 30 31  1  0
 31 32  1  0
 31 33  2  0
 31 34  2  0
 30 35  1  0
 35 36  2  0
 36 27  1  0
 25 37  1  0
 37 38  1  0
 38 22  1  0
 20 39  2  0
 39 40  1  0
 40 41  1  0
 41 42  2  0
 42 43  1  0
 43 44  1  0
 44 18  1  0
 44 40  2  0
M  END
> <Smiles>
Cc1cc(C#Cc2ccccn2)cc(C)c1Oc1nc(NC2CCN(Cc3ccc(S(N)(=O)=O)cc3)CC2)nc2ccsc12

> <IC50_uM>
0.29

> <pIC50>
6.537602002

> <Activity>
1

$$$$

  SciTegic10102310092D

 36 39  0  0  0  0            999 V2000
    3.1676   -7.5606    0.0000 C   0  0
    1.7006   -7.2475    0.0000 C   0  0
    0.6960   -8.3614    0.0000 C   0  0
   -0.7710   -8.0483    0.0000 C   0  0
   -1.7756   -9.1622    0.0000 C   0  0
   -1.2333   -6.6213    0.0000 C   0  0
   -0.2287   -5.5075    0.0000 C   0  0
   -0.6913   -4.0797    0.0000 S   0  0
   -2.1584   -3.7671    0.0000 O   0  0
   -1.6957   -5.1937    0.0000 O   0  0
    0.3114   -2.9665    0.0000 N   0  0
    1.8032   -3.1233    0.0000 C   0  0
    2.5551   -4.4192    0.0000 O   0  0
    4.0559   -4.4171    0.0000 C   0  0
    4.8090   -5.7153    0.0000 C   0  0
    4.0613   -7.0156    0.0000 O   0  0
    6.3098   -5.7131    0.0000 N   0  0
    7.0629   -7.0113    0.0000 C   0  0
    6.3130   -8.3104    0.0000 C   0  0
    7.0631   -9.6094    0.0000 C   0  0
    8.5631   -9.6094    0.0000 C   0  0
    9.3136  -10.9091    0.0000 S   0  0
   10.8136  -10.9085    0.0000 C   0  0
    8.5645  -12.2086    0.0000 O   0  0
   10.0643  -12.2077    0.0000 O   0  0
    9.3130   -8.3103    0.0000 C   0  0
    8.5630   -7.0113    0.0000 C   0  0
    9.3129   -5.7122    0.0000 Cl  0  0
    2.4133   -1.7530    0.0000 N   0  0
    1.2990   -0.7500    0.0000 C   0  0
    1.2990    0.7500    0.0000 C   0  0
    0.0000    1.5000    0.0000 C   0  0
   -1.2990    0.7500    0.0000 C   0  0
   -1.2990   -0.7500    0.0000 C   0  0
    0.0000   -1.5000    0.0000 C   0  0
    1.2383   -5.8206    0.0000 C   0  0
  1  2  1  0
  2  3  2  0
  3  4  1  0
  4  5  1  0
  4  6  2  0
  6  7  1  0
  7  8  1  0
  8  9  2  0
  8 10  2  0
  8 11  1  0
 11 12  1  0
 12 13  1  0
 13 14  1  0
 14 15  1  0
 15 16  2  0
 15 17  1  0
 17 18  1  0
 18 19  2  0
 19 20  1  0
 20 21  2  0
 21 22  1  0
 22 23  1  0
 22 24  2  0
 22 25  2  0
 21 26  1  0
 26 27  2  0
 27 18  1  0
 27 28  1  0
 12 29  2  0
 29 30  1  0
 30 31  2  0
 31 32  1  0
 32 33  2  0
 33 34  1  0
 34 35  2  0
 35 30  1  0
 35 11  1  0
  7 36  2  0
 36  2  1  0
M  END
> <Smiles>
Cc1cc(C)cc(S(=O)(=O)n2c(OCC(=O)Nc3ccc(S(C)(=O)=O)cc3Cl)nc3ccccc32)c1

> <IC50_uM>
0.29

> <pIC50>
6.537602002

> <Activity>
1

$$$$

  SciTegic10102310092D

 27 30  0  0  1  0            999 V2000
    5.1996   -1.4928    0.0000 C   0  0
    3.8990   -0.7455    0.0000 C   0  0
    2.6003   -1.4977    0.0000 C   0  0
    1.2990   -0.7500    0.0000 C   0  0
    1.2990    0.7500    0.0000 C   0  0
    0.0000    1.5000    0.0000 C   0  0
    0.0000    3.0000    0.0000 O   0  0
   -1.2990    0.7500    0.0000 O   0  0
   -1.2990   -0.7500    0.0000 C   0  0
   -2.5981   -1.5000    0.0000 C   0  0
   -2.5981   -3.0000    0.0000 C   0  0
   -1.2990   -3.7500    0.0000 C   0  0
    0.0000   -3.0000    0.0000 C   0  0
    0.0000   -1.5000    0.0000 C   0  0
    1.2991   -3.7500    0.0000 O   0  0
    1.2991   -5.2500    0.0000 C   0  0
    2.5800   -4.4695    0.0000 C   0  0
    1.2638   -6.7496    0.0000 C   0  0
    0.0000   -6.0000    0.0000 C   0  0
   -1.2990   -5.2500    0.0000 C   0  0
   -3.8971   -3.7500    0.0000 O   0  0
   -5.1961   -3.0000    0.0000 C   0  0  1  0  0  0
   -6.4952   -3.7500    0.0000 C   0  0
   -5.1962   -1.5000    0.0000 C   0  0  2  0  0  0
   -6.4952   -0.7500    0.0000 C   0  0
   -3.8971   -0.7500    0.0000 C   0  0  2  0  0  0
   -3.8971    0.7500    0.0000 O   0  0
  1  2  1  0
  2  3  1  0
  3  4  1  0
  4  5  2  0
  5  6  1  0
  6  7  2  0
  6  8  1  0
  8  9  1  0
  9 10  2  0
 10 11  1  0
 11 12  2  0
 12 13  1  0
 13 14  2  0
 14  4  1  0
 14  9  1  0
 13 15  1  0
 15 16  1  0
 16 17  1  0
 16 18  1  0
 16 19  1  0
 19 20  2  0
 20 12  1  0
 11 21  1  0
 21 22  1  0
 22 23  1  1
 22 24  1  0
 24 25  1  6
 24 26  1  0
 26 10  1  0
 26 27  1  6
M  END
> <Smiles>
CCCc1cc(=O)oc2c3c(c4c(c12)OC(C)(C)C=C4)O[C@@H](C)[C@H](C)[C@@H]3O

> <IC50_uM>
0.29

> <pIC50>
6.537602002

> <Activity>
1

$$$$

  SciTegic10102310092D

 32 36  0  0  0  0            999 V2000
    3.5145   -2.2320    0.0000 C   0  0
    2.0759   -1.8072    0.0000 C   0  0
    1.6852   -0.3846    0.0000 C   0  0  3  0  0  0
    2.6548    0.7277    0.0000 C   0  0
    4.1268    0.4395    0.0000 C   0  0
    5.1124    1.5703    0.0000 C   0  0
    4.6260    2.9892    0.0000 C   0  0
    5.6098    4.1226    0.0000 C   0  0
    5.1210    5.5416    0.0000 S   0  0
    6.1048    6.6750    0.0000 C   0  0
    5.6184    8.0940    0.0000 C   0  0
    6.6040    9.2247    0.0000 C   0  0
    8.0761    8.9366    0.0000 C   0  0
    9.0616   10.0674    0.0000 Br  0  0
    8.5626    7.5177    0.0000 C   0  0
    7.5770    6.3869    0.0000 C   0  0
    3.1539    3.2774    0.0000 C   0  0
    2.1683    2.1466    0.0000 C   0  0
    1.3514    1.0778    0.0000 O   0  0
    0.0000    1.7286    0.0000 C   0  0
    0.1115    3.2255    0.0000 C   0  0
   -1.1278    4.0705    0.0000 C   0  0
   -2.4793    3.4196    0.0000 C   0  0
   -2.5914    1.9238    0.0000 C   0  0
   -1.3515    1.0777    0.0000 C   0  0
   -1.6852   -0.3847    0.0000 N   0  0
   -3.0899   -0.9120    0.0000 C   0  0
   -3.0226   -2.4105    0.0000 C   0  0
   -1.5767   -2.8095    0.0000 C   0  0
   -0.7500   -1.5574    0.0000 C   0  0
    0.7500   -1.5574    0.0000 C   0  0
    1.4008   -2.9088    0.0000 O   0  0
  1  2  1  0
  3  2  1  4
  3  4  1  0
  4  5  2  0
  5  6  1  0
  6  7  2  0
  7  8  1  0
  8  9  1  0
  9 10  1  0
 10 11  2  0
 11 12  1  0
 12 13  2  0
 13 14  1  0
 13 15  1  0
 15 16  2  0
 16 10  1  0
  7 17  1  0
 17 18  2  0
 18  4  1  0
  3 19  1  0
 19 20  1  0
 20 21  2  0
 21 22  1  0
 22 23  2  0
 23 24  1  0
 24 25  2  0
 25 20  1  0
 25 26  1  0
 26 27  1  0
 27 28  2  0
 28 29  1  0
 29 30  2  0
 30 26  1  0
 30 31  1  0
 31  3  1  0
 31 32  2  0
M  END
> <Smiles>
CCC1(c2ccc(CSc3ccc(Br)cc3)cc2)Oc2ccccc2-n2cccc2C1=O

> <IC50_uM>
0.29

> <pIC50>
6.537602002

> <Activity>
1

$$$$

  SciTegic10102310092D

 22 24  0  0  0  0            999 V2000
   -0.2237   -5.5078    0.0000 C   0  0
   -0.6890   -4.0818    0.0000 C   0  0
    0.3114   -2.9665    0.0000 N   0  0
    1.8032   -3.1233    0.0000 C   0  0
    2.5532   -4.4223    0.0000 O   0  0
    2.4133   -1.7530    0.0000 N   0  0
    1.2990   -0.7500    0.0000 C   0  0
    1.2990    0.7500    0.0000 C   0  0
    0.0000    1.5000    0.0000 C   0  0
   -1.2990    0.7500    0.0000 C   0  0
   -1.2990   -0.7500    0.0000 C   0  0
   -2.6003   -1.4978    0.0000 O   0  0
   -3.8990   -0.7455    0.0000 C   0  0
   -5.2007   -1.4909    0.0000 C   0  0
   -6.4972   -0.7365    0.0000 C   0  0
   -7.7988   -1.4820    0.0000 Cl  0  0
   -6.4920    0.7635    0.0000 C   0  0
   -5.1903    1.5090    0.0000 C   0  0
   -5.1852    3.0099    0.0000 C   0  0
   -5.1800    4.5099    0.0000 N   0  0
   -3.8939    0.7546    0.0000 C   0  0
    0.0000   -1.5000    0.0000 C   0  0
  1  2  1  0
  2  3  1  0
  3  4  1  0
  4  5  2  0
  4  6  1  0
  6  7  1  0
  7  8  2  0
  8  9  1  0
  9 10  2  0
 10 11  1  0
 11 12  1  0
 12 13  1  0
 13 14  2  0
 14 15  1  0
 15 16  1  0
 15 17  2  0
 17 18  1  0
 18 19  1  0
 19 20  3  0
 18 21  2  0
 21 13  1  0
 11 22  2  0
 22  7  1  0
 22  3  1  0
M  END
> <Smiles>
CCn1c(=O)[nH]c2cccc(Oc3cc(Cl)cc(C#N)c3)c21

> <IC50_uM>
0.293

> <pIC50>
6.53313238

> <Activity>
1

$$$$

  SciTegic10102310092D

 16 18  0  0  0  0            999 V2000
    3.6065    0.0000    0.0000 Pt  0  6
    2.7248   -1.2135    0.0000 N   0  0
    1.2990   -0.7500    0.0000 C   0  0  3  0  0  0
    1.2990    0.7500    0.0000 C   0  0  3  0  0  0
    0.0000    1.5000    0.0000 C   0  0
   -1.2990    0.7500    0.0000 C   0  0
   -1.2990   -0.7500    0.0000 C   0  0
    0.0000   -1.5000    0.0000 C   0  0
    2.7248    1.2135    0.0000 N   0  0
    5.0487   -0.5394    0.0000 O   0  3
    6.0229    0.6012    0.0000 C   0  0
    7.5183    0.4835    0.0000 O   0  0
    5.2391    1.8802    0.0000 P   0  0
    6.7291    2.0537    0.0000 O   0  0
    4.3084    3.0565    0.0000 O   0  5
    3.7806    1.5300    0.0000 O   0  3
  1  2  1  0
  3  2  1  4
  3  4  1  0
  4  5  1  4
  5  6  1  0
  6  7  1  0
  7  8  1  0
  8  3  1  0
  4  9  1  0
  9  1  1  0
  1 10  1  0
 10 11  1  0
 11 12  2  0
 11 13  1  0
 13 14  2  0
 13 15  1  0
 13 16  1  0
 16  1  1  0
M  CHG  4   1  -2  10   1  15  -1  16   1
M  END
> <Smiles>
[Pt-2]12(NC3C(CCCC3)N1)[OH+]C(=O)P(=O)([O-])[OH+]2

> <IC50_uM>
0.295120923

> <pIC50>
6.53

> <Activity>
1

$$$$

  SciTegic10102310092D

 25 26  0  0  0  0            999 V2000
   -0.0043   -6.0064    0.0000 O   0  0
   -0.0047   -7.5072    0.0000 C   0  0
   -1.3035   -8.2577    0.0000 C   0  0
   -0.0045   -9.0072    0.0000 C   0  0
    1.2943   -8.2572    0.0000 C   0  0
    1.2952   -5.2556    0.0000 C   0  0
    1.2956   -3.7547    0.0000 N   0  0
    2.5951   -3.0039    0.0000 C   0  0  3  0  0  0
    2.5973   -1.5030    0.0000 C   0  0
    1.2990   -0.7500    0.0000 C   0  0
    1.2990    0.7500    0.0000 C   0  0
    0.0000    1.5000    0.0000 C   0  0
   -1.2990    0.7500    0.0000 C   0  0
   -1.2990   -0.7500    0.0000 C   0  0
    0.0000   -1.5000    0.0000 C   0  0
    3.8935   -3.7569    0.0000 C   0  0
    3.8914   -5.2577    0.0000 N   0  0
    5.1020   -6.1216    0.0000 C   0  0  3  0  0  0
    6.5258   -5.6556    0.0000 C   0  0
    6.8339   -4.1875    0.0000 O   0  0
    7.6434   -6.6560    0.0000 O   0  0
    4.6336   -7.5466    0.0000 C   0  0
    3.1336   -7.5415    0.0000 C   0  0
    2.6749   -6.1134    0.0000 C   0  0
    2.1612   -5.7555    0.0000 O   0  0
  1  2  1  0
  2  3  1  0
  2  4  1  0
  2  5  1  0
  1  6  1  0
  6  7  1  0
  8  7  1  4
  8  9  1  0
  9 10  1  0
 10 11  2  0
 11 12  1  0
 12 13  2  0
 13 14  1  0
 14 15  2  0
 15 10  1  0
  8 16  1  0
 16 17  1  0
 17 18  1  0
 18 19  1  4
 19 20  1  0
 19 21  2  0
 18 22  1  0
 22 23  1  0
 23 24  1  0
 24 17  1  0
  6 25  2  0
M  END
> <Smiles>
O(C(C)(C)C)C(NC(Cc1ccccc1)CN2C(C(O)=O)CCC2)=O

> <IC50_uM>
0.295120923

> <pIC50>
6.53

> <Activity>
1

$$$$

  SciTegic10102310092D

 33 35  0  0  0  0            999 V2000
    2.5981   -1.5000    0.0000 C   0  0
    1.2990   -0.7500    0.0000 C   0  0
    1.2990    0.7500    0.0000 C   0  0
    0.0000    1.5000    0.0000 C   0  0
    0.0000    3.0008    0.0000 C   0  0
    0.0000    4.5008    0.0000 N   0  0
   -1.2990    0.7500    0.0000 C   0  0
   -1.2990   -0.7500    0.0000 C   0  0
   -2.5981   -1.5000    0.0000 C   0  0
    0.0000   -1.5000    0.0000 C   0  0
    0.0031   -3.0008    0.0000 O   0  0
    1.3039   -3.7494    0.0000 C   0  0
    1.3092   -5.2494    0.0000 C   0  0
    2.6108   -5.9949    0.0000 C   0  0
    3.9073   -5.2404    0.0000 N   0  0
    3.9021   -3.7404    0.0000 C   0  0
    5.1992   -2.9855    0.0000 S   0  0
    5.1936   -1.4855    0.0000 O   0  0
    6.4953   -2.2304    0.0000 O   0  0
    6.5020   -3.7306    0.0000 C   0  0
    7.7992   -2.9757    0.0000 C   0  0
    7.7935   -1.4757    0.0000 O   0  0
    9.1020   -3.7208    0.0000 N   0  0
   10.3991   -2.9659    0.0000 C   0  0
   10.3910   -1.4658    0.0000 C   0  0
   11.6859   -0.7087    0.0000 C   0  0
   12.9890   -1.4516    0.0000 C   0  0
   14.2846   -0.6940    0.0000 C   0  0
   15.5795    0.0631    0.0000 N   0  0
   12.9972   -2.9515    0.0000 C   0  0
   11.7023   -3.7087    0.0000 C   0  0
   11.7106   -5.2086    0.0000 F   0  0
    2.6004   -2.9949    0.0000 N   0  0
  1  2  1  0
  2  3  2  0
  3  4  1  0
  4  5  1  0
  5  6  3  0
  4  7  2  0
  7  8  1  0
  8  9  1  0
  8 10  2  0
 10  2  1  0
 10 11  1  0
 11 12  1  0
 12 13  2  0
 13 14  1  0
 14 15  2  0
 15 16  1  0
 16 17  1  0
 17 18  2  0
 17 19  2  0
 17 20  1  0
 20 21  1  0
 21 22  2  0
 21 23  1  0
 23 24  1  0
 24 25  2  0
 25 26  1  0
 26 27  2  0
 27 28  1  0
 28 29  3  0
 27 30  1  0
 30 31  2  0
 31 24  1  0
 31 32  1  0
 16 33  2  0
 33 12  1  0
M  END
> <Smiles>
Cc1cc(C#N)cc(C)c1Oc1ccnc(S(=O)(=O)CC(=O)Nc2ccc(C#N)cc2F)n1

> <IC50_uM>
0.296

> <pIC50>
6.528708289

> <Activity>
1

$$$$

  SciTegic10102310092D

 25 27  0  0  0  0            999 V2000
    3.8978   -2.2504    0.0000 N   0  0
    2.5988   -1.5004    0.0000 C   0  0
    1.2990   -0.7500    0.0000 C   0  0
    1.2990    0.7500    0.0000 C   0  0
    0.0000    1.5000    0.0000 C   0  0
   -1.2990    0.7500    0.0000 C   0  0
   -2.6003    1.4977    0.0000 N   0  0
   -3.8990    0.7455    0.0000 C   0  0
   -5.2007    1.4909    0.0000 N   0  0
   -6.4972    0.7364    0.0000 C   0  0
   -7.7988    1.4819    0.0000 N   0  0
   -6.4920   -0.7636    0.0000 C   0  0
   -5.1903   -1.5091    0.0000 C   0  0
   -5.1821   -3.0099    0.0000 C   0  0
   -3.8787   -3.7540    0.0000 C   0  0
   -3.8682   -5.2539    0.0000 C   0  0
   -5.1620   -6.0130    0.0000 Cl  0  0
   -2.5640   -5.9949    0.0000 C   0  0
   -1.2702   -5.2360    0.0000 C   0  0
   -1.2805   -3.7360    0.0000 C   0  0
   -2.5847   -2.9950    0.0000 C   0  0
   -2.5951   -1.4950    0.0000 Cl  0  0
   -3.8939   -0.7546    0.0000 N   0  0
   -1.2990   -0.7500    0.0000 C   0  0
    0.0000   -1.5000    0.0000 C   0  0
  1  2  3  0
  2  3  1  0
  3  4  2  0
  4  5  1  0
  5  6  2  0
  6  7  1  0
  7  8  1  0
  8  9  2  0
  9 10  1  0
 10 11  1  0
 10 12  2  0
 12 13  1  0
 13 14  1  0
 14 15  1  0
 15 16  2  0
 16 17  1  0
 16 18  1  0
 18 19  2  0
 19 20  1  0
 20 21  2  0
 21 15  1  0
 21 22  1  0
 13 23  2  0
 23  8  1  0
  6 24  1  0
 24 25  2  0
 25  3  1  0
M  END
> <Smiles>
N#Cc1ccc(Nc2nc(N)cc(Cc3c(Cl)cccc3Cl)n2)cc1

> <IC50_uM>
0.299

> <pIC50>
6.524328812

> <Activity>
1

$$$$

  SciTegic10102310092D

 35 36  0  0  0  0            999 V2000
    6.4851   -9.7648    0.0000 C   0  0
    6.4868   -8.2648    0.0000 O   0  0
    5.1884   -7.5121    0.0000 C   0  0
    3.8883   -8.2602    0.0000 O   0  0
    5.1901   -6.0113    0.0000 C   0  0
    3.8917   -5.2586    0.0000 C   0  0
    3.8934   -3.7577    0.0000 C   0  0
    2.5949   -3.0050    0.0000 C   0  0
    2.5966   -1.5042    0.0000 C   0  0
    1.2990   -0.7500    0.0000 C   0  0
    1.2990    0.7500    0.0000 C   0  0
    0.0000    1.5000    0.0000 C   0  0
    0.0000    3.0000    0.0000 Br  0  0
   -1.2990    0.7500    0.0000 C   0  0
   -2.6003    1.4977    0.0000 O   0  0
   -3.8983    0.7459    0.0000 C   0  0
   -1.2990   -0.7500    0.0000 C   0  0
   -2.5972   -1.5031    0.0000 C   0  0
   -3.8976   -0.7554    0.0000 O   0  0
   -2.5951   -3.0039    0.0000 O   0  0
   -3.8926   -3.7566    0.0000 C   0  0
    0.0000   -1.5000    0.0000 C   0  0
    3.8990   -0.7582    0.0000 C   0  0
    3.9042    0.7419    0.0000 C   0  0
    5.2058    1.4875    0.0000 C   0  0
    5.2109    2.9875    0.0000 Br  0  0
    6.5023    0.7331    0.0000 C   0  0
    7.8061    1.4764    0.0000 O   0  0
    9.1015    0.7202    0.0000 C   0  0
    6.4972   -0.7669    0.0000 C   0  0
    7.7929   -1.5244    0.0000 C   0  0
    9.0957   -0.7811    0.0000 O   0  0
    7.7856   -3.0252    0.0000 O   0  0
    9.0805   -3.7823    0.0000 C   0  0
    5.1956   -1.5125    0.0000 C   0  0
  1  2  1  0
  2  3  1  0
  3  4  2  0
  3  5  1  0
  5  6  1  0
  6  7  1  0
  7  8  1  0
  8  9  2  0
  9 10  1  0
 10 11  2  0
 11 12  1  0
 12 13  1  0
 12 14  2  0
 14 15  1  0
 15 16  1  0
 14 17  1  0
 17 18  1  0
 18 19  2  0
 18 20  1  0
 20 21  1  0
 17 22  2  0
 22 10  1  0
  9 23  1  0
 23 24  2  0
 24 25  1  0
 25 26  1  0
 25 27  2  0
 27 28  1  0
 28 29  1  0
 27 30  1  0
 30 31  1  0
 31 32  2  0
 31 33  1  0
 33 34  1  0
 30 35  2  0
 35 23  1  0
M  END
> <Smiles>
COC(=O)CCCC=C(c1cc(Br)c(OC)c(C(=O)OC)c1)c1cc(Br)c(OC)c(C(=O)OC)c1

> <IC50_uM>
0.3

> <pIC50>
6.522878745

> <Activity>
1

$$$$

  SciTegic10102310092D

 24 26  0  0  0  0            999 V2000
    2.5981   -1.5000    0.0000 C   0  0
    1.2990   -0.7500    0.0000 C   0  0
    1.2990    0.7500    0.0000 C   0  0
    2.5972    1.5031    0.0000 C   0  0  3  0  0  0
    3.8976    0.7554    0.0000 C   0  0
    2.5951    3.0039    0.0000 C   0  0
    3.8915    3.7585    0.0000 C   0  0
    5.1932    3.0131    0.0000 F   0  0
    3.8863    5.2585    0.0000 C   0  0
    2.5847    6.0040    0.0000 C   0  0
    1.2883    5.2495    0.0000 C   0  0
    1.2934    3.7495    0.0000 C   0  0
   -0.0030    2.9951    0.0000 F   0  0
    0.0000    1.5000    0.0000 N   0  0
   -1.2990    0.7500    0.0000 C   0  0
   -2.6003    1.4977    0.0000 S   0  0
   -3.8990    0.7455    0.0000 C   0  0
   -5.2526    1.3618    0.0000 C   0  0
   -6.2524    0.2436    0.0000 C   0  0
   -5.4979   -1.0529    0.0000 C   0  0
   -4.0317   -0.7359    0.0000 C   0  0
   -1.2990   -0.7500    0.0000 N   0  0
    0.0000   -1.5000    0.0000 C   0  0
    0.0000   -3.0000    0.0000 O   0  0
  1  2  1  0
  2  3  2  0
  3  4  1  0
  4  5  1  4
  4  6  1  0
  6  7  2  0
  7  8  1  0
  7  9  1  0
  9 10  2  0
 10 11  1  0
 11 12  2  0
 12  6  1  0
 12 13  1  0
  3 14  1  0
 14 15  2  0
 15 16  1  0
 16 17  1  0
 17 18  1  0
 18 19  1  0
 19 20  1  0
 20 21  1  0
 21 17  1  0
 15 22  1  0
 22 23  1  0
 23  2  1  0
 23 24  2  0
M  END
> <Smiles>
Cc1c(C(C)c2c(F)cccc2F)nc(SC2CCCC2)[nH]c1=O

> <IC50_uM>
0.3

> <pIC50>
6.522878745

> <Activity>
1

$$$$

  SciTegic10102310092D

 27 30  0  0  0  0            999 V2000
   -0.0116   -8.9752    0.0000 N   0  0
    1.2900   -8.2297    0.0000 C   0  0
    2.5923   -7.4838    0.0000 C   0  0
    3.8888   -8.2382    0.0000 C   0  0
    5.1904   -7.4927    0.0000 C   0  0
    5.1956   -5.9927    0.0000 C   0  0
    6.4964   -5.2441    0.0000 N   0  0
    6.4995   -3.7432    0.0000 C   0  0
    7.7985   -2.9932    0.0000 N   0  0
    7.7985   -1.4932    0.0000 C   0  0
    6.4994   -0.7432    0.0000 C   0  0
    5.2003   -1.4932    0.0000 C   0  0
    3.8990   -0.7455    0.0000 O   0  0
    2.6003   -1.4977    0.0000 C   0  0
    1.2990   -0.7500    0.0000 C   0  0
    1.2990    0.7500    0.0000 C   0  0
    0.0000    1.5000    0.0000 C   0  0
   -1.2990    0.7500    0.0000 C   0  0
   -1.2990   -0.7500    0.0000 C   0  0
   -2.5981   -1.5000    0.0000 C   0  0
   -2.5981   -3.0000    0.0000 C   0  0
   -1.2990   -3.7500    0.0000 C   0  0
    0.0000   -3.0000    0.0000 C   0  0
    0.0000   -1.5000    0.0000 C   0  0
    5.2004   -2.9933    0.0000 N   0  0
    3.8991   -5.2382    0.0000 C   0  0
    2.5975   -5.9838    0.0000 C   0  0
  1  2  3  0
  2  3  1  0
  3  4  2  0
  4  5  1  0
  5  6  2  0
  6  7  1  0
  7  8  1  0
  8  9  2  0
  9 10  1  0
 10 11  2  0
 11 12  1  0
 12 13  1  0
 13 14  1  0
 14 15  1  0
 15 16  2  0
 16 17  1  0
 17 18  2  0
 18 19  1  0
 19 20  2  0
 20 21  1  0
 21 22  2  0
 22 23  1  0
 23 24  2  0
 24 15  1  0
 24 19  1  0
 12 25  2  0
 25  8  1  0
  6 26  1  0
 26 27  2  0
 27  3  1  0
M  END
> <Smiles>
N#Cc1ccc(Nc2nccc(OCc3cccc4ccccc34)n2)cc1

> <IC50_uM>
0.3

> <pIC50>
6.522878745

> <Activity>
1

$$$$

  SciTegic10102310092D

 24 26  0  0  0  0            999 V2000
    3.8978   -2.2504    0.0000 N   0  0
    2.5988   -1.5004    0.0000 C   0  0
    1.2990   -0.7500    0.0000 C   0  0
    1.2990    0.7500    0.0000 C   0  0
    0.0000    1.5000    0.0000 C   0  0
   -1.2990    0.7500    0.0000 C   0  0
   -2.6003    1.4977    0.0000 N   0  0
   -3.8990    0.7455    0.0000 C   0  0
   -5.2007    1.4909    0.0000 N   0  0
   -6.4972    0.7364    0.0000 C   0  0
   -6.4920   -0.7636    0.0000 C   0  0
   -5.1903   -1.5091    0.0000 C   0  0
   -5.1821   -3.0099    0.0000 O   0  0
   -3.8787   -3.7540    0.0000 C   0  0
   -3.8704   -5.2548    0.0000 C   0  0
   -5.1668   -6.0094    0.0000 C   0  0
   -5.1616   -7.5094    0.0000 C   0  0
   -3.8599   -8.2548    0.0000 C   0  0
   -2.5635   -7.5003    0.0000 C   0  0
   -2.5687   -6.0003    0.0000 C   0  0
   -1.2723   -5.2458    0.0000 F   0  0
   -3.8939   -0.7546    0.0000 N   0  0
   -1.2990   -0.7500    0.0000 C   0  0
    0.0000   -1.5000    0.0000 C   0  0
  1  2  3  0
  2  3  1  0
  3  4  2  0
  4  5  1  0
  5  6  2  0
  6  7  1  0
  7  8  1  0
  8  9  2  0
  9 10  1  0
 10 11  2  0
 11 12  1  0
 12 13  1  0
 13 14  1  0
 14 15  1  0
 15 16  2  0
 16 17  1  0
 17 18  2  0
 18 19  1  0
 19 20  2  0
 20 15  1  0
 20 21  1  0
 12 22  2  0
 22  8  1  0
  6 23  1  0
 23 24  2  0
 24  3  1  0
M  END
> <Smiles>
N#Cc1ccc(Nc2nccc(OCc3ccccc3F)n2)cc1

> <IC50_uM>
0.3

> <pIC50>
6.522878745

> <Activity>
1

$$$$

  SciTegic10102310092D

 17 16  0  0  0  0            999 V2000
    6.5000    2.2500    0.0000 N   0  0
    6.5000    0.7500    0.0000 Pt  0  6
    5.2000    0.0000    0.0000 O   0  3
    3.9000    0.7500    0.0000 C   0  0
    2.6000    0.0000    0.0000 C   0  0  3  0  0  0
    1.3000    0.7500    0.0000 C   0  0
    0.0007    0.0004    0.0000 S   0  0
    2.6000   -1.5000    0.0000 N   0  0
    3.9000    2.2500    0.0000 O   0  0
    7.7999    0.0000    0.0000 O   0  3
    9.0999    0.7500    0.0000 C   0  0
   10.3999    0.0000    0.0000 C   0  0  3  0  0  0
   11.6999    0.7500    0.0000 C   0  0
   12.9992    0.0004    0.0000 S   0  0
   10.3999   -1.5000    0.0000 N   0  0
    9.0999    2.2500    0.0000 O   0  0
    5.2010    1.5002    0.0000 N   0  0
  1  2  1  0
  2  3  1  0
  3  4  1  0
  4  5  1  0
  5  6  1  0
  6  7  1  0
  5  8  1  4
  4  9  2  0
  2 10  1  0
 10 11  1  0
 11 12  1  0
 12 13  1  0
 13 14  1  0
 12 15  1  4
 11 16  2  0
  2 17  1  0
M  CHG  3   2  -2   3   1  10   1
M  END
> <Smiles>
N[Pt-2]([OH+]C(C(CS)N)=O)([OH+]C(C(CS)N)=O)N

> <IC50_uM>
0.301995172

> <pIC50>
6.52

> <Activity>
1

$$$$

  SciTegic10102310092D

 21 23  0  0  0  0            999 V2000
   -0.2237   -5.5078    0.0000 C   0  0
   -0.6890   -4.0818    0.0000 C   0  0
    0.3114   -2.9665    0.0000 N   0  0
    1.8032   -3.1233    0.0000 C   0  0
    2.5532   -4.4223    0.0000 O   0  0
    2.4133   -1.7530    0.0000 N   0  0
    1.2990   -0.7500    0.0000 C   0  0
    1.2990    0.7500    0.0000 C   0  0
    0.0000    1.5000    0.0000 C   0  0
   -1.2990    0.7500    0.0000 C   0  0
   -1.2990   -0.7500    0.0000 C   0  0
   -2.6003   -1.4978    0.0000 O   0  0
   -3.8990   -0.7455    0.0000 C   0  0
   -5.2007   -1.4909    0.0000 C   0  0
   -6.4972   -0.7365    0.0000 C   0  0
   -7.7988   -1.4820    0.0000 C   0  0
   -6.4920    0.7635    0.0000 C   0  0
   -5.1903    1.5090    0.0000 C   0  0
   -5.1852    3.0090    0.0000 C   0  0
   -3.8939    0.7546    0.0000 C   0  0
    0.0000   -1.5000    0.0000 C   0  0
  1  2  1  0
  2  3  1  0
  3  4  1  0
  4  5  2  0
  4  6  1  0
  6  7  1  0
  7  8  2  0
  8  9  1  0
  9 10  2  0
 10 11  1  0
 11 12  1  0
 12 13  1  0
 13 14  2  0
 14 15  1  0
 15 16  1  0
 15 17  2  0
 17 18  1  0
 18 19  1  0
 18 20  2  0
 20 13  1  0
 11 21  2  0
 21  7  1  0
 21  3  1  0
M  END
> <Smiles>
CCn1c(=O)[nH]c2cccc(Oc3cc(C)cc(C)c3)c21

> <IC50_uM>
0.303

> <pIC50>
6.518557371

> <Activity>
1

$$$$

  SciTegic10102310092D

 38 40  0  0  0  0            999 V2000
    7.7919    1.5103    0.0000 C   0  0
    9.0933    0.7644    0.0000 C   0  0
    9.0990   -0.7364    0.0000 N   0  0
    7.8003   -1.4887    0.0000 C   0  0
    7.8029   -2.9887    0.0000 O   0  0
    6.4990   -0.7409    0.0000 C   0  0
    5.2003   -1.4932    0.0000 C   0  0
    3.8990   -0.7455    0.0000 C   0  0
    3.8964    0.7545    0.0000 O   0  0
    2.6003   -1.4977    0.0000 N   0  0
    1.2990   -0.7500    0.0000 C   0  0
    1.2990    0.7500    0.0000 C   0  0
    0.0000    1.5000    0.0000 C   0  0
   -1.2990    0.7500    0.0000 C   0  0
   -2.5987    1.5004    0.0000 C   0  0
   -2.6012    3.0004    0.0000 C   0  0
   -3.9015    3.7484    0.0000 C   0  0
   -5.1993    2.9963    0.0000 C   0  0
   -6.5018    3.7420    0.0000 C   0  0
   -7.7993    2.9876    0.0000 C   0  0
   -9.1010    3.7329    0.0000 O   0  0
   -7.7943    1.4876    0.0000 O   0  0
   -5.1969    1.4963    0.0000 C   0  0
   -3.8967    0.7484    0.0000 C   0  0
   -1.2990   -0.7500    0.0000 C   0  0
    0.0000   -1.5000    0.0000 C   0  0
    0.0000   -3.0000    0.0000 Cl  0  0
   10.4003   -1.4841    0.0000 C   0  0
   10.4004   -2.9842    0.0000 C   0  0
   11.6994   -3.7342    0.0000 C   0  0
   12.9985   -2.9841    0.0000 C   0  0
   14.2982   -3.7345    0.0000 C   0  0
   14.2992   -5.2345    0.0000 C   0  0
   15.5970   -2.9841    0.0000 C   0  0
   15.5977   -4.4839    0.0000 C   0  0
   12.9984   -1.4841    0.0000 C   0  0
   11.6994   -0.7342    0.0000 C   0  0
   11.6994    0.7658    0.0000 Cl  0  0
  1  2  1  0
  2  3  1  0
  3  4  1  0
  4  5  2  0
  4  6  1  0
  6  7  1  0
  7  8  1  0
  8  9  2  0
  8 10  1  0
 10 11  1  0
 11 12  2  0
 12 13  1  0
 13 14  2  0
 14 15  1  0
 15 16  2  0
 16 17  1  0
 17 18  2  0
 18 19  1  0
 19 20  1  0
 20 21  2  0
 20 22  1  0
 18 23  1  0
 23 24  2  0
 24 15  1  0
 14 25  1  0
 25 26  2  0
 26 11  1  0
 26 27  1  0
  3 28  1  0
 28 29  2  0
 29 30  1  0
 30 31  2  0
 31 32  1  0
 32 33  1  0
 32 34  1  0
 32 35  1  0
 31 36  1  0
 36 37  2  0
 37 28  1  0
 37 38  1  0
M  END
> <Smiles>
CCN(C(=O)CCC(=O)Nc1ccc(-c2ccc(CC(=O)O)cc2)cc1Cl)c1ccc(C(C)(C)C)cc1Cl

> <IC50_uM>
0.305

> <pIC50>
6.515700161

> <Activity>
1

$$$$

  SciTegic10102310092D

 25 27  0  0  0  0            999 V2000
    0.9706   -0.9185    0.0000 Ga  0  7
    1.4706   -0.0525    0.0000 O   0  3
    2.4706   -0.0525    0.0000 C   0  0
    1.9446    1.0260    0.0000 O   0  0
    2.9706   -0.9185    0.0000 C   0  0
    2.4706   -1.7845    0.0000 P   0  0
    2.6883   -2.6578    0.0000 O   0  5
    1.9348   -2.6288    0.0000 O   0  5
    1.4706   -1.7845    0.0000 O   0  3
    0.4706   -0.0525    0.0000 O   0  3
   -0.5294   -0.0525    0.0000 P   0  0
   -1.4691    0.2895    0.0000 O   0  5
   -0.3557    0.9323    0.0000 O   0  5
   -1.0294   -0.9185    0.0000 C   0  0
   -0.5294   -1.7845    0.0000 C   0  0
   -1.0294   -2.6505    0.0000 O   0  0
    0.4706   -1.7845    0.0000 O   0  3
    2.5706   -1.1475    0.0000 O   0  3
    3.5706   -1.1475    0.0000 P   0  0
    4.5103   -1.4895    0.0000 O   0  5
    3.3969   -2.1323    0.0000 O   0  5
    4.0706   -0.2815    0.0000 C   0  0
    3.5706    0.5845    0.0000 C   0  0
    4.0706    1.4506    0.0000 O   0  0
    2.5706    0.5845    0.0000 O   0  3
  1  2  1  0
  2  3  1  0
  3  4  2  0
  3  5  1  0
  5  6  1  0
  6  7  1  0
  6  8  1  0
  6  9  2  0
  9  1  1  0
  1 10  1  0
 10 11  2  0
 11 12  1  0
 11 13  1  0
 11 14  1  0
 14 15  1  0
 15 16  2  0
 15 17  1  0
 17  1  1  0
  1 18  1  0
 18 19  2  0
 19 20  1  0
 19 21  1  0
 19 22  1  0
 22 23  1  0
 23 24  2  0
 23 25  1  0
 25  1  1  0
M  CHG  8   1  -3   2   1   7  -1   8  -1   9   1  10   1  12  -1  13  -1
M  CHG  5  17   1  18   1  20  -1  21  -1  25   1
M  END
> <Smiles>
[Ga-3]123([OH+]C(=O)CP([O-])([O-])=[O+]1)([O+]=P([O-])([O-])CC(=O)[OH+]2)[O+]=P([O-])([O-])CC(=O)[OH+]3

> <IC50_uM>
0.309029543

> <pIC50>
6.51

> <Activity>
1

$$$$

  SciTegic10102310092D

 32 35  0  0  0  0            999 V2000
    3.8978   -2.2504    0.0000 N   0  0
    2.5988   -1.5004    0.0000 C   0  0
    1.2990   -0.7500    0.0000 C   0  0
    1.2990    0.7500    0.0000 C   0  0
    0.0000    1.5000    0.0000 C   0  0
   -1.2990    0.7500    0.0000 C   0  0
   -2.5981    1.5000    0.0000 C   0  0
   -2.5981    3.0000    0.0000 F   0  0
   -3.8971    0.7500    0.0000 C   0  0
   -3.8971   -0.7500    0.0000 C   0  0
   -5.1984   -1.4978    0.0000 O   0  0
   -6.4971   -0.7455    0.0000 C   0  0
   -6.4920    0.7545    0.0000 C   0  0
   -7.7884    1.5090    0.0000 C   0  0
   -9.0901    0.7635    0.0000 C   0  0
   -9.0952   -0.7365    0.0000 C   0  0
   -7.7988   -1.4910    0.0000 C   0  0
   -7.8071   -2.9918    0.0000 O   0  0
   -9.1105   -3.7358    0.0000 C   0  0
   -9.1188   -5.2366    0.0000 C   0  0
  -10.4223   -5.9806    0.0000 N   0  0
  -11.7162   -5.2216    0.0000 C   0  0
  -13.0204   -5.9626    0.0000 C   0  0
  -13.0308   -7.4626    0.0000 C   0  0
  -14.3350   -8.2035    0.0000 O   0  0
  -11.7370   -8.2216    0.0000 N   0  0
  -10.4328   -7.4806    0.0000 C   0  0
   -9.1390   -8.2397    0.0000 O   0  0
   -2.5981   -1.5000    0.0000 C   0  0
   -2.5981   -3.0000    0.0000 Cl  0  0
   -1.2990   -0.7500    0.0000 C   0  0
    0.0000   -1.5000    0.0000 C   0  0
  1  2  3  0
  2  3  1  0
  3  4  2  0
  4  5  1  0
  5  6  2  0
  6  7  1  0
  7  8  1  0
  7  9  2  0
  9 10  1  0
 10 11  1  0
 11 12  1  0
 12 13  2  0
 13 14  1  0
 14 15  2  0
 15 16  1  0
 16 17  2  0
 17 12  1  0
 17 18  1  0
 18 19  1  0
 19 20  1  0
 20 21  1  0
 21 22  1  0
 22 23  2  0
 23 24  1  0
 24 25  2  0
 24 26  1  0
 26 27  1  0
 27 21  1  0
 27 28  2  0
 10 29  2  0
 29 30  1  0
 29 31  1  0
 31  6  1  0
 31 32  2  0
 32  3  1  0
M  END
> <Smiles>
N#Cc1ccc2c(F)cc(Oc3ccccc3OCCn3ccc(=O)[nH]c3=O)c(Cl)c2c1

> <IC50_uM>
0.31

> <pIC50>
6.508638306

> <Activity>
1

$$$$

  SciTegic10102310092D

 22 23  0  0  0  0            999 V2000
    3.8912   -5.2570    0.0000 C   0  0
    3.8933   -3.7570    0.0000 C   0  0
    2.5951   -3.0039    0.0000 C   0  0
    2.5973   -1.5031    0.0000 N   0  0
    1.2990   -0.7500    0.0000 C   0  0
    1.2990    0.7500    0.0000 N   0  0
    0.0000    1.5000    0.0000 C   0  0
    0.0031    3.0008    0.0000 C   0  0  3  0  0  0
   -1.2947    3.7531    0.0000 C   0  0
    1.3039    3.7494    0.0000 C   0  0
    1.3092    5.2494    0.0000 C   0  0
    0.0127    6.0039    0.0000 F   0  0
    2.6108    5.9949    0.0000 C   0  0
    3.9072    5.2405    0.0000 C   0  0
    3.9020    3.7405    0.0000 C   0  0
    2.6004    2.9949    0.0000 C   0  0
    2.5953    1.4950    0.0000 F   0  0
   -1.2990    0.7500    0.0000 C   0  0
   -2.5981    1.5000    0.0000 C   0  0
   -1.2990   -0.7500    0.0000 C   0  0
   -2.5981   -1.5000    0.0000 O   0  0
    0.0000   -1.5000    0.0000 N   0  0
  1  2  1  0
  2  3  1  0
  3  4  1  0
  4  5  1  0
  5  6  2  0
  6  7  1  0
  7  8  1  0
  8  9  1  4
  8 10  1  0
 10 11  2  0
 11 12  1  0
 11 13  1  0
 13 14  2  0
 14 15  1  0
 15 16  2  0
 16 10  1  0
 16 17  1  0
  7 18  2  0
 18 19  1  0
 18 20  1  0
 20 21  2  0
 20 22  1  0
 22  5  1  0
M  END
> <Smiles>
CCCNc1nc(C(C)c2c(F)cccc2F)c(C)c(=O)[nH]1

> <IC50_uM>
0.31

> <pIC50>
6.508638306

> <Activity>
1

$$$$

  SciTegic10102310092D

 31 34  0  0  0  0            999 V2000
    3.1676   -7.5606    0.0000 C   0  0
    1.7006   -7.2475    0.0000 C   0  0
    0.6960   -8.3614    0.0000 C   0  0
   -0.7710   -8.0483    0.0000 C   0  0
   -1.7756   -9.1622    0.0000 C   0  0
   -1.2333   -6.6213    0.0000 C   0  0
   -0.2287   -5.5075    0.0000 C   0  0
   -0.6913   -4.0797    0.0000 S   0  0
   -2.1584   -3.7671    0.0000 O   0  0
   -1.6957   -5.1937    0.0000 O   0  0
    0.3114   -2.9665    0.0000 C   0  0
    1.8032   -3.1233    0.0000 C   0  0
    2.5551   -4.4192    0.0000 C   0  0
    1.8074   -5.7196    0.0000 O   0  0
    4.0559   -4.4171    0.0000 N   0  0
    4.8090   -5.7153    0.0000 C   0  0
    6.3098   -5.7131    0.0000 C   0  0
    7.0629   -7.0113    0.0000 N   0  0
    8.5438   -7.1491    0.0000 C   0  0
    8.8557   -8.6163    0.0000 C   0  0
    7.5567   -9.3664    0.0000 C   0  0
    6.4419   -8.3627    0.0000 C   0  0
    2.4133   -1.7530    0.0000 N   0  0
    1.2990   -0.7500    0.0000 C   0  0
    1.2990    0.7500    0.0000 C   0  0
    0.0000    1.5000    0.0000 C   0  0
   -1.2990    0.7500    0.0000 C   0  0
   -2.5981    1.5000    0.0000 Br  0  0
   -1.2990   -0.7500    0.0000 C   0  0
    0.0000   -1.5000    0.0000 C   0  0
    1.2383   -5.8206    0.0000 C   0  0
  1  2  1  0
  2  3  2  0
  3  4  1  0
  4  5  1  0
  4  6  2  0
  6  7  1  0
  7  8  1  0
  8  9  2  0
  8 10  2  0
  8 11  1  0
 11 12  2  0
 12 13  1  0
 13 14  2  0
 13 15  1  0
 15 16  1  0
 16 17  1  0
 17 18  1  0
 18 19  1  0
 19 20  1  0
 20 21  1  0
 21 22  1  0
 22 18  1  0
 12 23  1  0
 23 24  1  0
 24 25  2  0
 25 26  1  0
 26 27  2  0
 27 28  1  0
 27 29  1  0
 29 30  2  0
 30 11  1  0
 30 24  1  0
  7 31  2  0
 31  2  1  0
M  END
> <Smiles>
Cc1cc(C)cc(S(=O)(=O)c2c(C(=O)NCCN3CCCC3)[nH]c3ccc(Br)cc23)c1

> <IC50_uM>
0.315

> <pIC50>
6.501689446

> <Activity>
1

$$$$

  SciTegic10102310092D

 30 32  0  0  1  0            999 V2000
    3.1676   -7.5606    0.0000 C   0  0
    1.7006   -7.2475    0.0000 C   0  0
    0.6960   -8.3614    0.0000 C   0  0
   -0.7710   -8.0483    0.0000 C   0  0
   -1.7756   -9.1622    0.0000 C   0  0
   -1.2333   -6.6213    0.0000 C   0  0
   -0.2287   -5.5075    0.0000 C   0  0
   -0.6913   -4.0797    0.0000 S   0  0
   -2.1584   -3.7671    0.0000 O   0  0
   -1.6957   -5.1937    0.0000 O   0  0
    0.3114   -2.9665    0.0000 C   0  0
    1.8032   -3.1233    0.0000 C   0  0
    2.5551   -4.4192    0.0000 C   0  0
    1.8074   -5.7196    0.0000 O   0  0
    4.0559   -4.4171    0.0000 N   0  0
    4.8090   -5.7153    0.0000 C   0  0  1  0  0  0
    4.0613   -7.0156    0.0000 C   0  0
    6.3098   -5.7131    0.0000 C   0  0
    7.0629   -7.0113    0.0000 C   0  0
    6.3152   -8.3116    0.0000 N   0  0
    8.5629   -7.0091    0.0000 O   0  0
    2.4133   -1.7530    0.0000 N   0  0
    1.2990   -0.7500    0.0000 C   0  0
    1.2990    0.7500    0.0000 C   0  0
    0.0000    1.5000    0.0000 C   0  0
   -1.2990    0.7500    0.0000 C   0  0
   -2.5981    1.5000    0.0000 Cl  0  0
   -1.2990   -0.7500    0.0000 C   0  0
    0.0000   -1.5000    0.0000 C   0  0
    1.2383   -5.8206    0.0000 C   0  0
  1  2  1  0
  2  3  2  0
  3  4  1  0
  4  5  1  0
  4  6  2  0
  6  7  1  0
  7  8  1  0
  8  9  2  0
  8 10  2  0
  8 11  1  0
 11 12  2  0
 12 13  1  0
 13 14  2  0
 13 15  1  0
 15 16  1  0
 16 17  1  6
 16 18  1  0
 18 19  1  0
 19 20  1  0
 19 21  2  0
 12 22  1  0
 22 23  1  0
 23 24  2  0
 24 25  1  0
 25 26  2  0
 26 27  1  0
 26 28  1  0
 28 29  2  0
 29 11  1  0
 29 23  1  0
  7 30  2  0
 30  2  1  0
M  END
> <Smiles>
Cc1cc(C)cc(S(=O)(=O)c2c(C(=O)N[C@@H](C)CC(N)=O)[nH]c3ccc(Cl)cc23)c1

> <IC50_uM>
0.315

> <pIC50>
6.501689446

> <Activity>
1

$$$$

  SciTegic10102310092D

 22 23  0  0  0  0            999 V2000
    3.8983   -0.7566    0.0000 C   0  0
    2.5973   -1.5031    0.0000 C   0  0
    1.2990   -0.7500    0.0000 C   0  0
    1.2990    0.7500    0.0000 C   0  0
    2.5981    1.5000    0.0000 C   0  0
    0.0000    1.5000    0.0000 N   0  0
   -1.2990    0.7500    0.0000 C   0  0
   -2.5981    1.5000    0.0000 O   0  0
   -1.2990   -0.7500    0.0000 C   0  0
   -2.5972   -1.5031    0.0000 N   0  0
   -2.5951   -3.0039    0.0000 C   0  0
   -1.2948   -3.7517    0.0000 N   0  0
   -3.8926   -3.7566    0.0000 S   0  0
    0.0000   -1.5000    0.0000 C   0  0
    0.0031   -3.0008    0.0000 C   0  0
    1.3039   -3.7494    0.0000 C   0  0
    1.3092   -5.2494    0.0000 C   0  0
    2.6108   -5.9949    0.0000 C   0  0
    3.9073   -5.2404    0.0000 C   0  0
    3.9021   -3.7404    0.0000 C   0  0
    5.1985   -2.9859    0.0000 C   0  0
    2.6004   -2.9949    0.0000 C   0  0
  1  2  1  0
  2  3  1  0
  3  4  2  0
  4  5  1  0
  4  6  1  0
  6  7  1  0
  7  8  2  0
  7  9  1  0
  9 10  1  0
 10 11  1  0
 11 12  1  0
 11 13  2  0
  9 14  2  0
 14  3  1  0
 14 15  1  0
 15 16  1  0
 16 17  2  0
 17 18  1  0
 18 19  2  0
 19 20  1  0
 20 21  1  0
 20 22  2  0
 22 16  1  0
M  END
> <Smiles>
CCc1c(C)[nH]c(=O)c(NC(N)=S)c1Cc1cccc(C)c1

> <IC50_uM>
0.316

> <pIC50>
6.500312917

> <Activity>
1

$$$$

  SciTegic10102310092D

 29 31  0  0  0  0            999 V2000
    3.1676   -7.5606    0.0000 C   0  0
    1.7006   -7.2475    0.0000 C   0  0
    0.6960   -8.3614    0.0000 C   0  0
   -0.7710   -8.0483    0.0000 C   0  0
   -1.7756   -9.1622    0.0000 C   0  0
   -1.2333   -6.6213    0.0000 C   0  0
   -0.2287   -5.5075    0.0000 C   0  0
   -0.6913   -4.0797    0.0000 S   0  0
   -2.1584   -3.7671    0.0000 O   0  0
   -1.6957   -5.1937    0.0000 O   0  0
    0.3114   -2.9665    0.0000 C   0  0
    1.8032   -3.1233    0.0000 C   0  0
    2.5551   -4.4192    0.0000 C   0  0
    1.8074   -5.7196    0.0000 O   0  0
    4.0559   -4.4171    0.0000 N   0  0
    4.8090   -5.7153    0.0000 C   0  0
    6.3098   -5.7131    0.0000 C   0  0
    7.0575   -4.4127    0.0000 N   0  0
    7.0625   -7.0106    0.0000 O   0  0
    2.4133   -1.7530    0.0000 N   0  0
    1.2990   -0.7500    0.0000 C   0  0
    1.2990    0.7500    0.0000 C   0  0
    0.0000    1.5000    0.0000 C   0  0
   -1.2990    0.7500    0.0000 C   0  0
   -2.5981    1.5000    0.0000 Cl  0  0
   -1.2990   -0.7500    0.0000 C   0  0
   -2.5981   -1.5000    0.0000 F   0  0
    0.0000   -1.5000    0.0000 C   0  0
    1.2383   -5.8206    0.0000 C   0  0
  1  2  1  0
  2  3  2  0
  3  4  1  0
  4  5  1  0
  4  6  2  0
  6  7  1  0
  7  8  1  0
  8  9  2  0
  8 10  2  0
  8 11  1  0
 11 12  2  0
 12 13  1  0
 13 14  2  0
 13 15  1  0
 15 16  1  0
 16 17  1  0
 17 18  1  0
 17 19  2  0
 12 20  1  0
 20 21  1  0
 21 22  2  0
 22 23  1  0
 23 24  2  0
 24 25  1  0
 24 26  1  0
 26 27  1  0
 26 28  2  0
 28 11  1  0
 28 21  1  0
  7 29  2  0
 29  2  1  0
M  END
> <Smiles>
Cc1cc(C)cc(S(=O)(=O)c2c(C(=O)NCC(N)=O)[nH]c3ccc(Cl)c(F)c23)c1

> <IC50_uM>
0.319

> <pIC50>
6.496209317

> <Activity>
1

$$$$

  SciTegic10102310092D

 31 34  0  0  0  0            999 V2000
    3.9054   -3.7444    0.0000 C   0  0
    5.2029   -2.9917    0.0000 C   0  0
    5.2007   -1.4909    0.0000 C   0  0
    6.4972   -0.7364    0.0000 C   0  0
    7.7988   -1.4819    0.0000 O   0  0
    6.4920    0.7636    0.0000 N   0  0
    5.1903    1.5091    0.0000 C   0  0
    5.1821    3.0099    0.0000 S   0  0
    3.8787    3.7539    0.0000 C   0  0
    3.8704    5.2547    0.0000 C   0  0
    5.1655    6.0115    0.0000 O   0  0
    2.5670    5.9988    0.0000 C   0  0
    2.5565    7.4988    0.0000 C   0  0
    1.2523    8.2398    0.0000 C   0  0
   -0.0415    7.4808    0.0000 C   0  0
   -1.3457    8.2218    0.0000 C   0  0
   -0.0311    5.9809    0.0000 C   0  0
    1.2731    5.2399    0.0000 C   0  0
    3.8939    0.7546    0.0000 N   0  0
    3.8990   -0.7455    0.0000 C   0  0
    2.6003   -1.4977    0.0000 C   0  0
    1.2990   -0.7500    0.0000 C   0  0
    1.2990    0.7500    0.0000 C   0  0
    0.0000    1.5000    0.0000 C   0  0
   -1.2990    0.7500    0.0000 C   0  0
   -1.2990   -0.7500    0.0000 C   0  0
   -2.5981   -1.5000    0.0000 C   0  0
   -2.5981   -3.0000    0.0000 C   0  0
   -1.2990   -3.7500    0.0000 C   0  0
    0.0000   -3.0000    0.0000 C   0  0
    0.0000   -1.5000    0.0000 C   0  0
  1  2  1  0
  2  3  1  0
  3  4  2  0
  4  5  1  0
  4  6  1  0
  6  7  2  0
  7  8  1  0
  8  9  1  0
  9 10  1  0
 10 11  2  0
 10 12  1  0
 12 13  2  0
 13 14  1  0
 14 15  2  0
 15 16  1  0
 15 17  1  0
 17 18  2  0
 18 12  1  0
  7 19  1  0
 19 20  2  0
 20  3  1  0
 20 21  1  0
 21 22  1  0
 22 23  2  0
 23 24  1  0
 24 25  2  0
 25 26  1  0
 26 27  2  0
 27 28  1  0
 28 29  2  0
 29 30  1  0
 30 31  2  0
 31 22  1  0
 31 26  1  0
M  END
> <Smiles>
CCc1c(O)nc(SCC(=O)c2ccc(C)cc2)nc1Cc1cccc2ccccc12

> <IC50_uM>
0.32

> <pIC50>
6.494850022

> <Activity>
1

$$$$

  SciTegic10102310092D

 27 30  0  0  1  0            999 V2000
    5.1996   -1.4928    0.0000 C   0  0
    3.8990   -0.7455    0.0000 C   0  0
    2.6003   -1.4977    0.0000 C   0  0
    1.2990   -0.7500    0.0000 C   0  0
    1.2990    0.7500    0.0000 C   0  0
    0.0000    1.5000    0.0000 C   0  0
    0.0000    3.0000    0.0000 O   0  0
   -1.2990    0.7500    0.0000 O   0  0
   -1.2990   -0.7500    0.0000 C   0  0
   -2.5981   -1.5000    0.0000 C   0  0
   -2.5981   -3.0000    0.0000 C   0  0
   -1.2990   -3.7500    0.0000 C   0  0
    0.0000   -3.0000    0.0000 C   0  0
    0.0000   -1.5000    0.0000 C   0  0
    1.2991   -3.7500    0.0000 O   0  0
    1.2991   -5.2500    0.0000 C   0  0
    2.5800   -4.4695    0.0000 C   0  0
    1.2638   -6.7496    0.0000 C   0  0
    0.0000   -6.0000    0.0000 C   0  0
   -1.2990   -5.2500    0.0000 C   0  0
   -3.8971   -3.7500    0.0000 O   0  0
   -5.1961   -3.0000    0.0000 C   0  0  2  0  0  0
   -6.4952   -3.7500    0.0000 C   0  0
   -5.1962   -1.5000    0.0000 C   0  0  1  0  0  0
   -6.4952   -0.7500    0.0000 C   0  0
   -3.8971   -0.7500    0.0000 C   0  0  2  0  0  0
   -3.8971    0.7500    0.0000 O   0  0
  1  2  1  0
  2  3  1  0
  3  4  1  0
  4  5  2  0
  5  6  1  0
  6  7  2  0
  6  8  1  0
  8  9  1  0
  9 10  2  0
 10 11  1  0
 11 12  2  0
 12 13  1  0
 13 14  2  0
 14  4  1  0
 14  9  1  0
 13 15  1  0
 15 16  1  0
 16 17  1  0
 16 18  1  0
 16 19  1  0
 19 20  2  0
 20 12  1  0
 11 21  1  0
 21 22  1  0
 22 23  1  6
 22 24  1  0
 24 25  1  1
 24 26  1  0
 26 10  1  0
 26 27  1  6
M  END
> <Smiles>
CCCc1cc(=O)oc2c3c(c4c(c12)OC(C)(C)C=C4)O[C@H](C)[C@@H](C)[C@@H]3O

> <IC50_uM>
0.32

> <pIC50>
6.494850022

> <Activity>
1

$$$$

  SciTegic10102310092D

 32 35  0  0  0  0            999 V2000
    3.9054   -3.7444    0.0000 C   0  0
    5.2029   -2.9917    0.0000 C   0  0
    6.5032   -3.7395    0.0000 C   0  0
    5.2007   -1.4909    0.0000 C   0  0
    6.4972   -0.7364    0.0000 C   0  0
    7.7988   -1.4819    0.0000 O   0  0
    6.4920    0.7636    0.0000 N   0  0
    5.1903    1.5091    0.0000 C   0  0
    5.1821    3.0099    0.0000 S   0  0
    3.8787    3.7539    0.0000 C   0  0
    3.8704    5.2547    0.0000 C   0  0
    5.1655    6.0115    0.0000 O   0  0
    2.5670    5.9988    0.0000 C   0  0
    2.5565    7.4988    0.0000 C   0  0
    1.2523    8.2398    0.0000 C   0  0
   -0.0415    7.4808    0.0000 C   0  0
   -1.3457    8.2218    0.0000 Cl  0  0
   -0.0311    5.9809    0.0000 C   0  0
    1.2731    5.2399    0.0000 C   0  0
    3.8939    0.7546    0.0000 N   0  0
    3.8990   -0.7455    0.0000 C   0  0
    2.6003   -1.4977    0.0000 C   0  0
    1.2990   -0.7500    0.0000 C   0  0
    1.2990    0.7500    0.0000 C   0  0
    0.0000    1.5000    0.0000 C   0  0
   -1.2990    0.7500    0.0000 C   0  0
   -1.2990   -0.7500    0.0000 C   0  0
   -2.5981   -1.5000    0.0000 C   0  0
   -2.5981   -3.0000    0.0000 C   0  0
   -1.2990   -3.7500    0.0000 C   0  0
    0.0000   -3.0000    0.0000 C   0  0
    0.0000   -1.5000    0.0000 C   0  0
  1  2  1  0
  2  3  1  0
  2  4  1  0
  4  5  2  0
  5  6  1  0
  5  7  1  0
  7  8  2  0
  8  9  1  0
  9 10  1  0
 10 11  1  0
 11 12  2  0
 11 13  1  0
 13 14  2  0
 14 15  1  0
 15 16  2  0
 16 17  1  0
 16 18  1  0
 18 19  2  0
 19 13  1  0
  8 20  1  0
 20 21  2  0
 21  4  1  0
 21 22  1  0
 22 23  1  0
 23 24  2  0
 24 25  1  0
 25 26  2  0
 26 27  1  0
 27 28  2  0
 28 29  1  0
 29 30  2  0
 30 31  1  0
 31 32  2  0
 32 23  1  0
 32 27  1  0
M  END
> <Smiles>
CC(C)c1c(O)nc(SCC(=O)c2ccc(Cl)cc2)nc1Cc1cccc2ccccc12

> <IC50_uM>
0.32

> <pIC50>
6.494850022

> <Activity>
1

$$$$

  SciTegic10102310092D

 18 20  0  0  0  0            999 V2000
    6.3600   -2.3926    0.0000 O   0  0
    4.8823   -2.5608    0.0000 C   0  0  3  0  0  0
    3.8794   -1.4442    0.0000 C   0  0
    2.4133   -1.7530    0.0000 N   0  0
    1.8032   -3.1233    0.0000 C   0  0
    0.3114   -2.9665    0.0000 N   0  0
    1.2990   -0.7500    0.0000 C   0  0
    1.2990    0.7500    0.0000 N   0  0
    0.0000    1.5000    0.0000 C   0  0
   -1.2990    0.7500    0.0000 N   0  0
   -1.2990   -0.7500    0.0000 C   0  0
   -2.5981   -1.5000    0.0000 N   0  0
    0.0000   -1.5000    0.0000 C   0  0
    4.5510   -4.0107    0.0000 O   0  0
    5.8476   -4.7650    0.0000 C   0  0
    6.9656   -3.7649    0.0000 C   0  0  3  0  0  0
    8.4307   -4.0782    0.0000 C   0  0
    9.4365   -2.9654    0.0000 O   0  0
  1  2  1  0
  2  3  1  4
  3  4  1  0
  4  5  1  0
  5  6  2  0
  4  7  1  0
  7  8  2  0
  8  9  1  0
  9 10  2  0
 10 11  1  0
 11 12  1  0
  7 13  1  0
 13  6  1  0
 13 11  2  0
  2 14  1  0
 14 15  1  0
 15 16  1  0
 16  1  1  0
 16 17  1  4
 17 18  1  0
M  END
> <Smiles>
O1C(Cn(cn2)c(ncnc3N)c23)OCC1CO

> <IC50_uM>
0.323593657

> <pIC50>
6.49

> <Activity>
1

$$$$

  SciTegic10102310092D

 29 31  0  0  1  0            999 V2000
    3.1676   -7.5606    0.0000 C   0  0
    1.7006   -7.2475    0.0000 C   0  0
    0.6960   -8.3614    0.0000 C   0  0
   -0.7710   -8.0483    0.0000 C   0  0
   -1.7756   -9.1622    0.0000 C   0  0
   -1.2333   -6.6213    0.0000 C   0  0
   -0.2287   -5.5075    0.0000 C   0  0
   -0.6913   -4.0797    0.0000 S   0  0
   -2.1584   -3.7671    0.0000 O   0  0
   -1.6957   -5.1937    0.0000 O   0  0
    0.3114   -2.9665    0.0000 C   0  0
    1.8032   -3.1233    0.0000 C   0  0
    2.5551   -4.4192    0.0000 C   0  0
    1.8074   -5.7196    0.0000 O   0  0
    4.0559   -4.4171    0.0000 N   0  0
    4.8090   -5.7153    0.0000 C   0  0  2  0  0  0
    4.0613   -7.0156    0.0000 C   0  0
    6.3098   -5.7131    0.0000 C   0  0
    7.0575   -4.4127    0.0000 N   0  0
    7.0625   -7.0106    0.0000 O   0  0
    2.4133   -1.7530    0.0000 N   0  0
    1.2990   -0.7500    0.0000 C   0  0
    1.2990    0.7500    0.0000 C   0  0
    0.0000    1.5000    0.0000 C   0  0
   -1.2990    0.7500    0.0000 C   0  0
   -2.5981    1.5000    0.0000 Br  0  0
   -1.2990   -0.7500    0.0000 C   0  0
    0.0000   -1.5000    0.0000 C   0  0
    1.2383   -5.8206    0.0000 C   0  0
  1  2  1  0
  2  3  2  0
  3  4  1  0
  4  5  1  0
  4  6  2  0
  6  7  1  0
  7  8  1  0
  8  9  2  0
  8 10  2  0
  8 11  1  0
 11 12  2  0
 12 13  1  0
 13 14  2  0
 13 15  1  0
 15 16  1  0
 16 17  1  1
 16 18  1  0
 18 19  1  0
 18 20  2  0
 12 21  1  0
 21 22  1  0
 22 23  2  0
 23 24  1  0
 24 25  2  0
 25 26  1  0
 25 27  1  0
 27 28  2  0
 28 11  1  0
 28 22  1  0
  7 29  2  0
 29  2  1  0
M  END
> <Smiles>
Cc1cc(C)cc(S(=O)(=O)c2c(C(=O)N[C@H](C)C(N)=O)[nH]c3ccc(Br)cc23)c1

> <IC50_uM>
0.324

> <pIC50>
6.48945499

> <Activity>
1

$$$$

  SciTegic10102310092D

 33 35  0  0  0  0            999 V2000
   -4.6589   -7.1702    0.0000 C   0  0
   -3.2450   -6.6694    0.0000 C   0  0
   -1.8348   -6.1949    0.0000 C   0  0  3  0  0  0
   -0.6883   -7.1426    0.0000 C   0  0
    0.7266   -6.6420    0.0000 O   0  0
    1.8682   -7.6163    0.0000 P   0  0
    0.4543   -8.1173    0.0000 O   0  0
    1.5949   -9.0912    0.0000 O   0  0
    3.2831   -7.1157    0.0000 O   0  0
    4.4246   -8.0900    0.0000 P   0  0
    3.0108   -8.5910    0.0000 O   0  0
    4.1513   -9.5649    0.0000 O   0  0
    5.8395   -7.5894    0.0000 O   0  0
    6.9811   -8.5637    0.0000 P   0  0
    8.3952   -8.0634    0.0000 O   0  0
    8.1216   -9.5380    0.0000 O   0  0
    6.7078  -10.0386    0.0000 O   0  0
   -0.4810   -5.5489    0.0000 C   0  0
   -0.6928   -4.0817    0.0000 C   0  0  3  0  0  0
    0.3114   -2.9665    0.0000 N   0  0
    1.8032   -3.1233    0.0000 C   0  0
    2.4133   -1.7530    0.0000 N   0  0
    1.2990   -0.7500    0.0000 C   0  0
    1.2990    0.7500    0.0000 C   0  0
    2.5981    1.5000    0.0000 O   0  0
    0.0000    1.5000    0.0000 N   0  0
   -1.2990    0.7500    0.0000 C   0  0
   -2.5981    1.5000    0.0000 N   0  0
   -1.2990   -0.7500    0.0000 N   0  0
    0.0000   -1.5000    0.0000 C   0  0
   -2.1519   -3.7886    0.0000 C   0  0
   -2.8675   -5.1069    0.0000 C   0  0  3  0  0  0
   -4.3546   -5.3029    0.0000 O   0  0
  1  2  3  0
  3  2  1  4
  3  4  1  0
  4  5  1  0
  5  6  1  0
  6  7  2  0
  6  8  1  0
  6  9  1  0
  9 10  1  0
 10 11  2  0
 10 12  1  0
 10 13  1  0
 13 14  1  0
 14 15  2  0
 14 16  1  0
 14 17  1  0
  3 18  1  0
 18 19  1  0
 19 20  1  4
 20 21  1  0
 21 22  2  0
 22 23  1  0
 23 24  1  0
 24 25  2  0
 24 26  1  0
 26 27  1  0
 27 28  1  0
 27 29  2  0
 29 30  1  0
 30 23  2  0
 30 20  1  0
 19 31  1  0
 31 32  1  0
 32  3  1  0
 32 33  1  4
M  END
> <Smiles>
C#CC1(COP(=O)(O)OP(=O)(O)OP(=O)(O)O)CC(n2cnc3c(=O)[nH]c(N)nc32)CC1O

> <IC50_uM>
0.324

> <pIC50>
6.48945499

> <Activity>
1

$$$$

  SciTegic10102310092D

 38 40  0  0  0  0            999 V2000
    9.0964    0.7636    0.0000 C   0  0
    9.0990   -0.7364    0.0000 N   0  0
    7.8003   -1.4887    0.0000 C   0  0
    7.8029   -2.9887    0.0000 O   0  0
    6.4990   -0.7409    0.0000 C   0  0
    5.2003   -1.4932    0.0000 C   0  0
    3.8990   -0.7455    0.0000 C   0  0
    3.8964    0.7545    0.0000 O   0  0
    2.6003   -1.4977    0.0000 N   0  0
    1.2990   -0.7500    0.0000 C   0  0
    1.2990    0.7500    0.0000 C   0  0
    0.0000    1.5000    0.0000 C   0  0
   -1.2990    0.7500    0.0000 C   0  0
   -2.5987    1.5004    0.0000 C   0  0
   -2.6012    3.0004    0.0000 C   0  0
   -3.9015    3.7484    0.0000 C   0  0
   -5.1993    2.9963    0.0000 C   0  0
   -6.5018    3.7420    0.0000 O   0  0
   -7.7993    2.9876    0.0000 C   0  0
   -9.1017    3.7333    0.0000 C   0  0
  -10.3985    2.9794    0.0000 O   0  0
   -9.1067    5.2333    0.0000 O   0  0
   -5.1969    1.4963    0.0000 C   0  0
   -3.8967    0.7484    0.0000 C   0  0
   -1.2990   -0.7500    0.0000 C   0  0
    0.0000   -1.5000    0.0000 C   0  0
    0.0000   -3.0000    0.0000 Cl  0  0
   10.4003   -1.4841    0.0000 C   0  0
   10.4004   -2.9842    0.0000 C   0  0
   11.6994   -3.7342    0.0000 C   0  0
   12.9985   -2.9841    0.0000 C   0  0
   14.2982   -3.7345    0.0000 C   0  0
   14.2992   -5.2345    0.0000 C   0  0
   15.5970   -2.9841    0.0000 C   0  0
   15.5977   -4.4839    0.0000 C   0  0
   12.9984   -1.4841    0.0000 C   0  0
   11.6994   -0.7342    0.0000 C   0  0
   11.6994    0.7658    0.0000 Cl  0  0
  1  2  1  0
  2  3  1  0
  3  4  2  0
  3  5  1  0
  5  6  1  0
  6  7  1  0
  7  8  2  0
  7  9  1  0
  9 10  1  0
 10 11  2  0
 11 12  1  0
 12 13  2  0
 13 14  1  0
 14 15  2  0
 15 16  1  0
 16 17  2  0
 17 18  1  0
 18 19  1  0
 19 20  1  0
 20 21  2  0
 20 22  1  0
 17 23  1  0
 23 24  2  0
 24 14  1  0
 13 25  1  0
 25 26  2  0
 26 10  1  0
 26 27  1  0
  2 28  1  0
 28 29  2  0
 29 30  1  0
 30 31  2  0
 31 32  1  0
 32 33  1  0
 32 34  1  0
 32 35  1  0
 31 36  1  0
 36 37  2  0
 37 28  1  0
 37 38  1  0
M  END
> <Smiles>
CN(C(=O)CCC(=O)Nc1ccc(-c2ccc(OCC(=O)O)cc2)cc1Cl)c1ccc(C(C)(C)C)cc1Cl

> <IC50_uM>
0.328

> <pIC50>
6.484126156

> <Activity>
1

$$$$

  SciTegic10102310092D

 33 36  0  0  0  0            999 V2000
    2.5981   -1.5000    0.0000 C   0  0
    1.2990   -0.7500    0.0000 C   0  0
    1.2990    0.7500    0.0000 C   0  0
    2.5972    1.5031    0.0000 O   0  0
    2.5951    3.0039    0.0000 C   0  0
    1.2934    3.7495    0.0000 C   0  0
    1.2883    5.2495    0.0000 C   0  0
    2.5847    6.0040    0.0000 C   0  0
    2.5795    7.5040    0.0000 Cl  0  0
    3.8863    5.2585    0.0000 C   0  0
    3.8915    3.7585    0.0000 C   0  0
    5.1954    3.0153    0.0000 O   0  0
    6.4915    3.7721    0.0000 C   0  0
    7.7954    3.0289    0.0000 C   0  0
    9.0914    3.7857    0.0000 N   0  0
    9.0810    5.2858    0.0000 C   0  0
   10.3748    6.0448    0.0000 C   0  0
   11.6791    5.3038    0.0000 C   0  0
   12.9729    6.0629    0.0000 O   0  0
   11.6895    3.8039    0.0000 N   0  0
   10.3957    3.0449    0.0000 C   0  0
   10.4062    1.5449    0.0000 O   0  0
    0.0000    1.5000    0.0000 C   0  0
   -1.2990    0.7500    0.0000 C   0  0
   -2.5981    1.5000    0.0000 F   0  0
   -1.2990   -0.7500    0.0000 C   0  0
   -2.5981   -1.5000    0.0000 C   0  0
   -2.5981   -3.0000    0.0000 C   0  0
   -1.2990   -3.7500    0.0000 C   0  0
   -1.2990   -5.2508    0.0000 C   0  0
   -1.2990   -6.7508    0.0000 N   0  0
    0.0000   -3.0000    0.0000 C   0  0
    0.0000   -1.5000    0.0000 C   0  0
  1  2  1  0
  2  3  2  0
  3  4  1  0
  4  5  1  0
  5  6  2  0
  6  7  1  0
  7  8  2  0
  8  9  1  0
  8 10  1  0
 10 11  2  0
 11  5  1  0
 11 12  1  0
 12 13  1  0
 13 14  1  0
 14 15  1  0
 15 16  1  0
 16 17  2  0
 17 18  1  0
 18 19  2  0
 18 20  1  0
 20 21  1  0
 21 15  1  0
 21 22  2  0
  3 23  1  0
 23 24  2  0
 24 25  1  0
 24 26  1  0
 26 27  2  0
 27 28  1  0
 28 29  2  0
 29 30  1  0
 30 31  3  0
 29 32  1  0
 32 33  2  0
 33  2  1  0
 33 26  1  0
M  END
> <Smiles>
Cc1c(Oc2ccc(Cl)cc2OCCn2ccc(=O)[nH]c2=O)cc(F)c2ccc(C#N)cc12

> <IC50_uM>
0.33

> <pIC50>
6.48148606

> <Activity>
1

$$$$

  SciTegic10102310092D

 22 24  0  0  0  0            999 V2000
    4.1721   -6.4425    0.0000 C   0  0
    3.1690   -7.5578    0.0000 O   0  0
    1.7006   -7.2475    0.0000 C   0  0
    0.6960   -8.3614    0.0000 C   0  0
   -0.7710   -8.0483    0.0000 C   0  0
   -1.2333   -6.6213    0.0000 C   0  0
   -0.2287   -5.5075    0.0000 C   0  0
   -0.6913   -4.0797    0.0000 S   0  0
   -2.1584   -3.7671    0.0000 O   0  0
   -1.6957   -5.1937    0.0000 O   0  0
    0.3114   -2.9665    0.0000 N   0  0
    1.8032   -3.1233    0.0000 C   0  0
    2.5532   -4.4223    0.0000 O   0  0
    2.4133   -1.7530    0.0000 N   0  0
    1.2990   -0.7500    0.0000 C   0  0
    1.2990    0.7500    0.0000 C   0  0
    0.0000    1.5000    0.0000 C   0  0
   -1.2990    0.7500    0.0000 C   0  0
   -2.5981    1.5000    0.0000 Cl  0  0
   -1.2990   -0.7500    0.0000 C   0  0
    0.0000   -1.5000    0.0000 C   0  0
    1.2383   -5.8206    0.0000 C   0  0
  1  2  1  0
  2  3  1  0
  3  4  2  0
  4  5  1  0
  5  6  2  0
  6  7  1  0
  7  8  1  0
  8  9  2  0
  8 10  2  0
  8 11  1  0
 11 12  1  0
 12 13  2  0
 12 14  1  0
 14 15  1  0
 15 16  2  0
 16 17  1  0
 17 18  2  0
 18 19  1  0
 18 20  1  0
 20 21  2  0
 21 15  1  0
 21 11  1  0
  7 22  2  0
 22  3  1  0
M  END
> <Smiles>
COc1cccc(S(=O)(=O)n2c(=O)[nH]c3ccc(Cl)cc32)c1

> <IC50_uM>
0.33

> <pIC50>
6.48148606

> <Activity>
1

$$$$

  SciTegic10102310092D

 31 34  0  0  0  0            999 V2000
    2.5981   -1.5000    0.0000 C   0  0
    1.2990   -0.7500    0.0000 C   0  0
    1.2990    0.7500    0.0000 C   0  0
    0.0000    1.5000    0.0000 C   0  0
    0.0000    3.0008    0.0000 C   0  0
    0.0000    4.5008    0.0000 N   0  0
   -1.2990    0.7500    0.0000 C   0  0
   -1.2990   -0.7500    0.0000 C   0  0
   -2.5981   -1.5000    0.0000 C   0  0
    0.0000   -1.5000    0.0000 C   0  0
    0.0031   -3.0008    0.0000 O   0  0
    1.3039   -3.7494    0.0000 C   0  0
    2.6005   -2.9949    0.0000 N   0  0
    3.9021   -3.7404    0.0000 C   0  0
    5.2008   -2.9882    0.0000 N   0  0
    6.5021   -3.7360    0.0000 C   0  0
    7.8012   -2.9860    0.0000 C   0  0
    9.1002   -3.7360    0.0000 C   0  0
    9.1002   -5.2360    0.0000 N   0  0
   10.3999   -5.9864    0.0000 C   0  0
   11.7002   -5.2385    0.0000 C   0  0
   12.9981   -5.9906    0.0000 C   0  0
   12.9957   -7.4906    0.0000 C   0  0
   11.6954   -8.2385    0.0000 C   0  0
   10.3976   -7.4865    0.0000 C   0  0
    7.8012   -5.9860    0.0000 C   0  0
    6.5021   -5.2360    0.0000 C   0  0
    3.9073   -5.2404    0.0000 N   0  0
    2.6108   -5.9949    0.0000 C   0  0
    1.3092   -5.2494    0.0000 C   0  0
    0.0128   -6.0039    0.0000 Br  0  0
  1  2  1  0
  2  3  2  0
  3  4  1  0
  4  5  1  0
  5  6  3  0
  4  7  2  0
  7  8  1  0
  8  9  1  0
  8 10  2  0
 10  2  1  0
 10 11  1  0
 11 12  1  0
 12 13  2  0
 13 14  1  0
 14 15  1  0
 15 16  1  0
 16 17  1  0
 17 18  1  0
 18 19  1  0
 19 20  1  0
 20 21  2  0
 21 22  1  0
 22 23  2  0
 23 24  1  0
 24 25  2  0
 25 20  1  0
 19 26  1  0
 26 27  1  0
 27 16  1  0
 14 28  2  0
 28 29  1  0
 29 30  2  0
 30 12  1  0
 30 31  1  0
M  END
> <Smiles>
Cc1cc(C#N)cc(C)c1Oc1nc(NC2CCN(c3ccccc3)CC2)ncc1Br

> <IC50_uM>
0.334

> <pIC50>
6.476253533

> <Activity>
1

$$$$

  SciTegic10102310092D

 30 32  0  0  0  0            999 V2000
   14.2905    0.7816    0.0000 N   0  0
   12.9891    1.5275    0.0000 S   0  0
   12.9848    3.0275    0.0000 O   0  0
   14.2859    2.2814    0.0000 O   0  0
   11.6919    0.7726    0.0000 C   0  0
   10.3903    1.5181    0.0000 C   0  0
    9.0939    0.7636    0.0000 C   0  0
    9.0990   -0.7364    0.0000 C   0  0
    7.8003   -1.4887    0.0000 N   0  0
    6.4990   -0.7409    0.0000 C   0  0
    6.4964    0.7591    0.0000 O   0  0
    5.2003   -1.4932    0.0000 C   0  0
    3.8990   -0.7455    0.0000 N   0  0
    2.6003   -1.4977    0.0000 C   0  0
    2.6030   -2.9977    0.0000 O   0  0
    1.2990   -0.7500    0.0000 N   0  0
    1.2990    0.7500    0.0000 C   0  0
    0.0000    1.5000    0.0000 C   0  0
   -1.2990    0.7500    0.0000 C   0  0
   -1.2990   -0.7500    0.0000 C   0  0
   -2.5981   -1.5000    0.0000 C   0  0
   -2.5981   -3.0000    0.0000 C   0  0
   -3.8971   -3.7500    0.0000 Cl  0  0
   -1.2990   -3.7500    0.0000 C   0  0
    0.0000   -3.0000    0.0000 C   0  0
    1.2991   -3.7500    0.0000 Cl  0  0
    0.0000   -1.5000    0.0000 C   0  0
   10.4007   -1.4818    0.0000 C   0  0
   10.4059   -2.9818    0.0000 Cl  0  0
   11.6971   -0.7274    0.0000 C   0  0
  1  2  1  0
  2  3  2  0
  2  4  2  0
  2  5  1  0
  5  6  2  0
  6  7  1  0
  7  8  2  0
  8  9  1  0
  9 10  1  0
 10 11  2  0
 10 12  1  0
 12 13  1  0
 13 14  1  0
 14 15  2  0
 14 16  1  0
 16 17  1  0
 17 18  1  0
 18 19  1  0
 19 20  1  0
 20 21  2  0
 21 22  1  0
 22 23  1  0
 22 24  2  0
 24 25  1  0
 25 26  1  0
 25 27  2  0
 27 20  1  0
 27 16  1  0
  8 28  1  0
 28 29  1  0
 28 30  2  0
 30  5  1  0
M  END
> <Smiles>
NS(=O)(=O)c1ccc(NC(=O)CNC(=O)N2CCCc3cc(Cl)cc(Cl)c32)c(Cl)c1

> <IC50_uM>
0.336

> <pIC50>
6.473660723

> <Activity>
1

$$$$

  SciTegic10102310092D

 19 21  0  0  0  0            999 V2000
    6.3600   -2.3926    0.0000 O   0  0
    4.8823   -2.5608    0.0000 C   0  0  3  0  0  0
    3.8794   -1.4442    0.0000 C   0  0
    2.4133   -1.7530    0.0000 N   0  0
    1.8032   -3.1233    0.0000 C   0  0
    0.3114   -2.9665    0.0000 N   0  0
    1.2990   -0.7500    0.0000 C   0  0
    1.2990    0.7500    0.0000 N   0  0
    0.0000    1.5000    0.0000 C   0  0
   -1.2990    0.7500    0.0000 N   0  0
   -1.2990   -0.7500    0.0000 C   0  0
   -2.5981   -1.5000    0.0000 O   0  0
    0.0000    3.0000    0.0000 N   0  0
    0.0000   -1.5000    0.0000 C   0  0
    4.5510   -4.0107    0.0000 O   0  0
    5.8476   -4.7650    0.0000 C   0  0
    6.9656   -3.7649    0.0000 C   0  0  3  0  0  0
    8.4307   -4.0782    0.0000 C   0  0
    9.4365   -2.9654    0.0000 O   0  0
  1  2  1  0
  2  3  1  4
  3  4  1  0
  4  5  1  0
  5  6  2  0
  4  7  1  0
  7  8  2  0
  8  9  1  0
  9 10  2  0
 10 11  1  0
 11 12  1  0
  9 13  1  0
  7 14  1  0
 14  6  1  0
 14 11  2  0
  2 15  1  0
 15 16  1  0
 16 17  1  0
 17  1  1  0
 17 18  1  4
 18 19  1  0
M  END
> <Smiles>
O1C(Cn(cn2)c(nc(nc3O)N)c23)OCC1CO

> <IC50_uM>
0.338844156

> <pIC50>
6.47

> <Activity>
1

$$$$

  SciTegic10102310092D

 19 20  0  0  1  0            999 V2000
    6.1533    0.7377    0.0000 C   0  0
    5.5397   -0.6311    0.0000 C   0  0
    4.9531   -1.9978    0.0000 C   0  0  2  0  0  0
    5.8076   -3.2156    0.0000 C   0  0
    5.4010   -4.1292    0.0000 O   0  0
    3.9511   -0.8815    0.0000 O   0  0
    2.5987   -1.5004    0.0000 C   0  0  1  0  0  0
    1.2990   -0.7500    0.0000 N   0  0
    1.2990    0.7500    0.0000 C   0  0
    0.0000    1.5000    0.0000 C   0  0
    0.0000    3.0000    0.0000 I   0  0
   -1.2990    0.7500    0.0000 C   0  0
   -2.5981    1.5000    0.0000 O   0  0
   -1.2990   -0.7500    0.0000 N   0  0
    0.0000   -1.5000    0.0000 C   0  0
    0.0000   -3.0000    0.0000 O   0  0
    2.7343   -2.9815    0.0000 C   0  0
    4.2010   -3.2956    0.0000 C   0  0  2  0  0  0
    4.6063   -4.2098    0.0000 O   0  0
  1  2  3  0
  3  2  1  1
  3  4  1  0
  4  5  1  0
  3  6  1  0
  6  7  1  0
  7  8  1  6
  8  9  1  0
  9 10  2  0
 10 11  1  0
 10 12  1  0
 12 13  2  0
 12 14  1  0
 14 15  1  0
 15  8  1  0
 15 16  2  0
  7 17  1  0
 17 18  1  0
 18  3  1  0
 18 19  1  1
M  END
> <Smiles>
C#C[C@]1(CO)O[C@@H](n2cc(I)c(=O)[nH]c2=O)C[C@@H]1O

> <IC50_uM>
0.34

> <pIC50>
6.468521083

> <Activity>
1

$$$$

  SciTegic10102310092D

 24 25  0  0  1  0            999 V2000
    3.8912   -5.2570    0.0000 C   0  0
    3.8933   -3.7570    0.0000 C   0  0
    2.5951   -3.0039    0.0000 C   0  0
    2.5973   -1.5031    0.0000 N   0  0
    3.8976   -0.7553    0.0000 C   0  0
    1.2990   -0.7500    0.0000 C   0  0
    1.2990    0.7500    0.0000 N   0  0
    0.0000    1.5000    0.0000 C   0  0
    0.0031    3.0008    0.0000 C   0  0  2  0  0  0
   -1.2969    3.7508    0.0000 O   0  0
   -2.5962    3.0012    0.0000 C   0  0
    1.3039    3.7494    0.0000 C   0  0
    1.3092    5.2494    0.0000 C   0  0
    0.0127    6.0039    0.0000 Cl  0  0
    2.6108    5.9949    0.0000 C   0  0
    3.9072    5.2405    0.0000 C   0  0
    3.9020    3.7405    0.0000 C   0  0
    2.6004    2.9949    0.0000 C   0  0
    2.5953    1.4950    0.0000 Cl  0  0
   -1.2990    0.7500    0.0000 C   0  0
   -2.5981    1.5000    0.0000 C   0  0
   -1.2990   -0.7500    0.0000 C   0  0
   -2.5981   -1.5000    0.0000 O   0  0
    0.0000   -1.5000    0.0000 N   0  0
  1  2  1  0
  2  3  1  0
  3  4  1  0
  4  5  1  0
  4  6  1  0
  6  7  2  0
  7  8  1  0
  8  9  1  0
  9 10  1  6
 10 11  1  0
  9 12  1  0
 12 13  2  0
 13 14  1  0
 13 15  1  0
 15 16  2  0
 16 17  1  0
 17 18  2  0
 18 12  1  0
 18 19  1  0
  8 20  2  0
 20 21  1  0
 20 22  1  0
 22 23  2  0
 22 24  1  0
 24  6  1  0
M  END
> <Smiles>
CCCN(C)c1nc([C@H](OC)c2c(Cl)cccc2Cl)c(C)c(=O)[nH]1

> <IC50_uM>
0.34

> <pIC50>
6.468521083

> <Activity>
1

$$$$

  SciTegic10102310092D

 23 24  0  0  0  0            999 V2000
    3.9075   -3.7444    0.0000 C   0  0
    2.6060   -2.9986    0.0000 O   0  0
    2.6003   -1.4977    0.0000 C   0  0  3  0  0  0
    1.2990   -0.7500    0.0000 C   0  0
    1.2990    0.7500    0.0000 N   0  0
    0.0000    1.5000    0.0000 C   0  0
   -0.0031    3.0008    0.0000 N   0  0
   -1.3039    3.7494    0.0000 C   0  0
   -1.3070    5.2494    0.0000 C   0  0
   -2.6017    2.9971    0.0000 C   0  0
   -1.2990    0.7500    0.0000 N   0  0
   -1.2990   -0.7500    0.0000 C   0  0
   -2.5981   -1.5000    0.0000 O   0  0
    0.0000   -1.5000    0.0000 C   0  0
    0.0000   -3.0000    0.0000 C   0  0
    3.8990   -0.7455    0.0000 C   0  0
    5.2007   -1.4909    0.0000 C   0  0
    5.2060   -2.9909    0.0000 Cl  0  0
    6.4972   -0.7364    0.0000 C   0  0
    6.4920    0.7636    0.0000 C   0  0
    5.1903    1.5091    0.0000 C   0  0
    3.8939    0.7546    0.0000 C   0  0
    2.5923    1.5001    0.0000 Cl  0  0
  1  2  1  0
  3  2  1  4
  3  4  1  0
  4  5  1  0
  5  6  2  0
  6  7  1  0
  7  8  1  0
  8  9  1  0
  8 10  1  0
  6 11  1  0
 11 12  1  0
 12 13  2  0
 12 14  1  0
 14  4  2  0
 14 15  1  0
  3 16  1  0
 16 17  2  0
 17 18  1  0
 17 19  1  0
 19 20  2  0
 20 21  1  0
 21 22  2  0
 22 16  1  0
 22 23  1  0
M  END
> <Smiles>
COC(c1nc(NC(C)C)[nH]c(=O)c1C)c1c(Cl)cccc1Cl

> <IC50_uM>
0.34

> <pIC50>
6.468521083

> <Activity>
1

$$$$

  SciTegic10102310092D

 26 28  0  0  0  0            999 V2000
    3.8976   -0.7553    0.0000 C   0  0
    2.5973   -1.5031    0.0000 C   0  0  3  0  0  0
    1.2990   -0.7500    0.0000 C   0  0
    1.2990    0.7500    0.0000 C   0  0
    0.0000    1.5000    0.0000 C   0  0
    0.0000    3.0000    0.0000 O   0  0
   -1.2990    0.7500    0.0000 N   0  0
   -1.2990   -0.7500    0.0000 C   0  0
   -2.5972   -1.5031    0.0000 N   0  0
   -2.5951   -3.0039    0.0000 C   0  0
   -3.8915   -3.7585    0.0000 C   0  0
   -3.8863   -5.2585    0.0000 C   0  0
   -2.5847   -6.0040    0.0000 C   0  0
   -2.5795   -7.5048    0.0000 C   0  0
   -2.5743   -9.0048    0.0000 N   0  0
   -1.2883   -5.2495    0.0000 C   0  0
   -1.2935   -3.7495    0.0000 C   0  0
    0.0000   -1.5000    0.0000 N   0  0
    2.5951   -3.0039    0.0000 C   0  0
    3.8915   -3.7585    0.0000 C   0  0
    5.1932   -3.0130    0.0000 F   0  0
    3.8864   -5.2585    0.0000 C   0  0
    2.5847   -6.0040    0.0000 C   0  0
    1.2883   -5.2495    0.0000 C   0  0
    1.2935   -3.7495    0.0000 C   0  0
   -0.0030   -2.9951    0.0000 F   0  0
  2  1  1  4
  2  3  1  0
  3  4  2  0
  4  5  1  0
  5  6  2  0
  5  7  1  0
  7  8  1  0
  8  9  1  0
  9 10  1  0
 10 11  2  0
 11 12  1  0
 12 13  2  0
 13 14  1  0
 14 15  3  0
 13 16  1  0
 16 17  2  0
 17 10  1  0
  8 18  2  0
 18  3  1  0
  2 19  1  0
 19 20  2  0
 20 21  1  0
 20 22  1  0
 22 23  2  0
 23 24  1  0
 24 25  2  0
 25 19  1  0
 25 26  1  0
M  END
> <Smiles>
CC(c1cc(=O)[nH]c(Nc2ccc(C#N)cc2)n1)c1c(F)cccc1F

> <IC50_uM>
0.347

> <pIC50>
6.459670525

> <Activity>
1

$$$$

  SciTegic10102310092D

 27 29  0  0  0  0            999 V2000
    2.5951   -3.0031    0.0000 C   0  0
    2.5973   -1.5031    0.0000 O   0  0
    1.2990   -0.7500    0.0000 C   0  0
    1.2990    0.7500    0.0000 C   0  0
    0.0000    1.5000    0.0000 C   0  0
    0.0000    3.0000    0.0000 F   0  0
   -1.2990    0.7500    0.0000 C   0  0
   -2.6003    1.4977    0.0000 C   0  0
   -2.6030    2.9977    0.0000 O   0  0
   -3.8990    0.7455    0.0000 C   0  0
   -5.2007    1.4909    0.0000 C   0  0
   -6.4972    0.7364    0.0000 C   0  0
   -6.4920   -0.7636    0.0000 N   0  0
   -5.1903   -1.5091    0.0000 C   0  0
   -5.1821   -3.0099    0.0000 N   0  0
   -3.8787   -3.7540    0.0000 C   0  0
   -3.8682   -5.2539    0.0000 C   0  0
   -2.5640   -5.9949    0.0000 C   0  0
   -1.2702   -5.2360    0.0000 C   0  0
    0.0347   -5.9774    0.0000 C   0  0
    1.3389   -6.7184    0.0000 N   0  0
   -1.2805   -3.7360    0.0000 C   0  0
   -2.5847   -2.9950    0.0000 C   0  0
   -3.8939   -0.7546    0.0000 N   0  0
   -1.2990   -0.7500    0.0000 C   0  0
   -2.5981   -1.5000    0.0000 F   0  0
    0.0000   -1.5000    0.0000 C   0  0
  1  2  1  0
  2  3  1  0
  3  4  2  0
  4  5  1  0
  5  6  1  0
  5  7  2  0
  7  8  1  0
  8  9  2  0
  8 10  1  0
 10 11  2  0
 11 12  1  0
 12 13  2  0
 13 14  1  0
 14 15  1  0
 15 16  1  0
 16 17  2  0
 17 18  1  0
 18 19  2  0
 19 20  1  0
 20 21  3  0
 19 22  1  0
 22 23  2  0
 23 16  1  0
 14 24  2  0
 24 10  1  0
  7 25  1  0
 25 26  1  0
 25 27  2  0
 27  3  1  0
M  END
> <Smiles>
COc1cc(F)c(C(=O)c2ccnc(Nc3ccc(C#N)cc3)n2)c(F)c1

> <IC50_uM>
0.347

> <pIC50>
6.459670525

> <Activity>
1

$$$$

  SciTegic10102310092D

 29 31  0  0  0  0            999 V2000
    3.1676   -7.5606    0.0000 C   0  0
    1.7006   -7.2475    0.0000 C   0  0
    0.6960   -8.3614    0.0000 C   0  0
   -0.7710   -8.0483    0.0000 C   0  0
   -1.7756   -9.1622    0.0000 C   0  0
   -1.2333   -6.6213    0.0000 C   0  0
   -0.2287   -5.5075    0.0000 C   0  0
   -0.6913   -4.0797    0.0000 S   0  0
   -2.1584   -3.7671    0.0000 O   0  0
   -1.6957   -5.1937    0.0000 O   0  0
    0.3114   -2.9665    0.0000 C   0  0
    1.8032   -3.1233    0.0000 C   0  0
    2.5551   -4.4192    0.0000 C   0  0
    1.8074   -5.7196    0.0000 O   0  0
    4.0559   -4.4171    0.0000 N   0  0
    4.8090   -5.7153    0.0000 C   0  0
    6.3098   -5.7131    0.0000 C   0  0
    7.0629   -7.0113    0.0000 C   0  0
    6.3152   -8.3116    0.0000 N   0  0
    8.5629   -7.0091    0.0000 O   0  0
    2.4133   -1.7530    0.0000 N   0  0
    1.2990   -0.7500    0.0000 C   0  0
    1.2990    0.7500    0.0000 C   0  0
    0.0000    1.5000    0.0000 C   0  0
   -1.2990    0.7500    0.0000 C   0  0
   -2.5981    1.5000    0.0000 Cl  0  0
   -1.2990   -0.7500    0.0000 C   0  0
    0.0000   -1.5000    0.0000 C   0  0
    1.2383   -5.8206    0.0000 C   0  0
  1  2  1  0
  2  3  2  0
  3  4  1  0
  4  5  1  0
  4  6  2  0
  6  7  1  0
  7  8  1  0
  8  9  2  0
  8 10  2  0
  8 11  1  0
 11 12  2  0
 12 13  1  0
 13 14  2  0
 13 15  1  0
 15 16  1  0
 16 17  1  0
 17 18  1  0
 18 19  1  0
 18 20  2  0
 12 21  1  0
 21 22  1  0
 22 23  2  0
 23 24  1  0
 24 25  2  0
 25 26  1  0
 25 27  1  0
 27 28  2  0
 28 11  1  0
 28 22  1  0
  7 29  2  0
 29  2  1  0
M  END
> <Smiles>
Cc1cc(C)cc(S(=O)(=O)c2c(C(=O)NCCC(N)=O)[nH]c3ccc(Cl)cc23)c1

> <IC50_uM>
0.351

> <pIC50>
6.454692884

> <Activity>
1

$$$$

  SciTegic10102310092D

 37 41  0  0  0  0            999 V2000
    2.5923    1.5001    0.0000 C   0  0
    3.8939    0.7546    0.0000 C   0  0
    5.1903    1.5091    0.0000 C   0  0
    6.4920    0.7636    0.0000 C   0  0
    7.7907    1.5158    0.0000 C   0  0
    9.0920    0.7680    0.0000 C   0  0
   10.3907    1.5203    0.0000 C   0  0
   11.6886    2.2721    0.0000 N   0  0
    6.4972   -0.7364    0.0000 C   0  0
    5.2007   -1.4909    0.0000 C   0  0
    5.2059   -2.9909    0.0000 C   0  0
    3.8990   -0.7455    0.0000 C   0  0
    2.6003   -1.4977    0.0000 O   0  0
    1.2990   -0.7500    0.0000 C   0  0
    1.2990    0.7500    0.0000 N   0  0
    0.0000    1.5000    0.0000 C   0  0
   -0.0031    3.0008    0.0000 N   0  0
   -1.3039    3.7494    0.0000 C   0  0
   -1.3092    5.2494    0.0000 C   0  0
   -2.6108    5.9949    0.0000 C   0  0
   -3.9073    5.2404    0.0000 N   0  0
   -5.2112    5.9836    0.0000 C   0  0
   -6.5072    5.2269    0.0000 C   0  0
   -6.4969    3.7268    0.0000 C   0  0
   -7.7907    2.9679    0.0000 C   0  0
   -9.0949    3.7089    0.0000 C   0  0
   -9.1053    5.2088    0.0000 C   0  0
   -7.8115    5.9678    0.0000 C   0  0
   -7.8219    7.4678    0.0000 Br  0  0
   -3.9021    3.7404    0.0000 C   0  0
   -2.6005    2.9949    0.0000 C   0  0
   -1.2990    0.7500    0.0000 N   0  0
   -1.2990   -0.7500    0.0000 C   0  0
   -2.4133   -1.7530    0.0000 C   0  0
   -1.8032   -3.1233    0.0000 C   0  0
   -0.3114   -2.9665    0.0000 S   0  0
    0.0000   -1.5000    0.0000 C   0  0
  1  2  1  0
  2  3  2  0
  3  4  1  0
  4  5  1  0
  5  6  2  0
  6  7  1  0
  7  8  3  0
  4  9  2  0
  9 10  1  0
 10 11  1  0
 10 12  2  0
 12  2  1  0
 12 13  1  0
 13 14  1  0
 14 15  2  0
 15 16  1  0
 16 17  1  0
 17 18  1  0
 18 19  1  0
 19 20  1  0
 20 21  1  0
 21 22  1  0
 22 23  1  0
 23 24  2  0
 24 25  1  0
 25 26  2  0
 26 27  1  0
 27 28  2  0
 28 23  1  0
 28 29  1  0
 21 30  1  0
 30 31  1  0
 31 18  1  0
 16 32  2  0
 32 33  1  0
 33 34  1  0
 34 35  2  0
 35 36  1  0
 36 37  1  0
 37 14  1  0
 37 33  2  0
M  END
> <Smiles>
Cc1cc(/C=C/C#N)cc(C)c1Oc1nc(NC2CCN(Cc3ccccc3Br)CC2)nc2ccsc12

> <IC50_uM>
0.351

> <pIC50>
6.454692884

> <Activity>
1

$$$$

  SciTegic10102310092D

 33 36  0  0  0  0            999 V2000
    2.5981   -1.5000    0.0000 C   0  0
    1.2990   -0.7500    0.0000 C   0  0
    1.2990    0.7500    0.0000 C   0  0
    0.0000    1.5000    0.0000 C   0  0
    0.0000    3.0008    0.0000 C   0  0
    0.0000    4.5008    0.0000 N   0  0
   -1.2990    0.7500    0.0000 C   0  0
   -1.2990   -0.7500    0.0000 C   0  0
   -2.5981   -1.5000    0.0000 C   0  0
    0.0000   -1.5000    0.0000 C   0  0
    0.0031   -3.0008    0.0000 O   0  0
    1.3039   -3.7494    0.0000 C   0  0
    2.6005   -2.9949    0.0000 N   0  0
    3.9021   -3.7404    0.0000 C   0  0
    5.2008   -2.9882    0.0000 N   0  0
    6.5021   -3.7360    0.0000 C   0  0
    7.8012   -2.9860    0.0000 C   0  0
    9.1002   -3.7360    0.0000 C   0  0
    9.1002   -5.2360    0.0000 N   0  0
   10.3999   -5.9864    0.0000 C   0  0
   11.7002   -5.2385    0.0000 C   0  0
   12.9981   -5.9906    0.0000 C   0  0
   12.9957   -7.4906    0.0000 C   0  0
   11.6954   -8.2385    0.0000 C   0  0
   11.6931   -9.7394    0.0000 C   0  0
   11.6907  -11.2394    0.0000 N   0  0
   10.3976   -7.4865    0.0000 C   0  0
    7.8012   -5.9860    0.0000 C   0  0
    6.5021   -5.2360    0.0000 C   0  0
    3.9073   -5.2404    0.0000 N   0  0
    2.6108   -5.9949    0.0000 C   0  0
    1.3092   -5.2494    0.0000 C   0  0
    0.0128   -6.0039    0.0000 Br  0  0
  1  2  1  0
  2  3  2  0
  3  4  1  0
  4  5  1  0
  5  6  3  0
  4  7  2  0
  7  8  1  0
  8  9  1  0
  8 10  2  0
 10  2  1  0
 10 11  1  0
 11 12  1  0
 12 13  2  0
 13 14  1  0
 14 15  1  0
 15 16  1  0
 16 17  1  0
 17 18  1  0
 18 19  1  0
 19 20  1  0
 20 21  2  0
 21 22  1  0
 22 23  2  0
 23 24  1  0
 24 25  1  0
 25 26  3  0
 24 27  2  0
 27 20  1  0
 19 28  1  0
 28 29  1  0
 29 16  1  0
 14 30  2  0
 30 31  1  0
 31 32  2  0
 32 12  1  0
 32 33  1  0
M  END
> <Smiles>
Cc1cc(C#N)cc(C)c1Oc1nc(NC2CCN(c3cccc(C#N)c3)CC2)ncc1Br

> <IC50_uM>
0.352

> <pIC50>
6.453457337

> <Activity>
1

$$$$

  SciTegic10102310092D

 23 22  0  0  0  0            999 V2000
    7.7999   -1.5000    0.0000 N   0  0
    7.7999    0.0000    0.0000 Pt  0  6
    6.5000    0.7500    0.0000 O   0  3
    5.2000    0.0000    0.0000 C   0  0
    3.9000    0.7500    0.0000 C   0  0  3  0  0  0
    3.8969    2.2508    0.0000 C   0  0
    2.5968    2.9990    0.0000 S   0  0
    2.6000    0.0000    0.0000 N   0  0
    1.3000    0.7500    0.0000 C   0  0
    1.3000    2.2500    0.0000 C   0  0
    0.0007    0.0004    0.0000 O   0  0
    5.2000   -1.5000    0.0000 O   0  0
    9.0999    0.7500    0.0000 O   0  3
   10.3999    0.0000    0.0000 C   0  0
   11.6999    0.7500    0.0000 C   0  0  3  0  0  0
   11.7030    2.2508    0.0000 C   0  0
   13.0031    2.9990    0.0000 S   0  0
   12.9999    0.0000    0.0000 N   0  0
   14.2999    0.7500    0.0000 C   0  0
   14.2999    2.2500    0.0000 C   0  0
   15.5992    0.0004    0.0000 O   0  0
   10.3999   -1.5000    0.0000 O   0  0
    6.5010   -0.7502    0.0000 N   0  0
  1  2  1  0
  2  3  1  0
  3  4  1  0
  4  5  1  0
  5  6  1  4
  6  7  1  0
  5  8  1  0
  8  9  1  0
  9 10  1  0
  9 11  2  0
  4 12  2  0
  2 13  1  0
 13 14  1  0
 14 15  1  0
 15 16  1  4
 16 17  1  0
 15 18  1  0
 18 19  1  0
 19 20  1  0
 19 21  2  0
 14 22  2  0
  2 23  1  0
M  CHG  3   2  -2   3   1  13   1
M  END
> <Smiles>
N[Pt-2]([OH+]C(C(CS)NC(C)=O)=O)([OH+]C(C(CS)NC(C)=O)=O)N

> <IC50_uM>
0.354813389

> <pIC50>
6.45

> <Activity>
1

$$$$

  SciTegic10102310092D

 39 43  0  0  0  0            999 V2000
    2.5923    1.5001    0.0000 C   0  0
    3.8939    0.7546    0.0000 C   0  0
    5.1903    1.5091    0.0000 C   0  0
    6.4920    0.7636    0.0000 C   0  0
    7.7891    1.5185    0.0000 C   0  0
    9.0856    2.2729    0.0000 N   0  0
    6.4972   -0.7364    0.0000 C   0  0
    5.2007   -1.4909    0.0000 C   0  0
    5.2059   -2.9909    0.0000 C   0  0
    3.8990   -0.7455    0.0000 C   0  0
    2.6003   -1.4977    0.0000 O   0  0
    1.2990   -0.7500    0.0000 C   0  0
    1.2990    0.7500    0.0000 N   0  0
    0.0000    1.5000    0.0000 C   0  0
   -0.0031    3.0008    0.0000 N   0  0
   -1.3039    3.7494    0.0000 C   0  0  3  0  0  0
   -1.3092    5.2494    0.0000 C   0  0
   -2.6108    5.9949    0.0000 C   0  0
   -3.9073    5.2404    0.0000 C   0  0  3  0  0  0
   -5.2112    5.9836    0.0000 N   0  0
   -6.5072    5.2269    0.0000 C   0  0
   -7.8111    5.9701    0.0000 C   0  0
   -9.1076    5.2156    0.0000 C   0  0
  -10.4092    5.9611    0.0000 C   0  0
  -10.4145    7.4611    0.0000 C   0  0
  -11.7168    8.2070    0.0000 S   0  0
  -11.7216    9.7070    0.0000 C   0  0
  -13.0137    7.4533    0.0000 O   0  0
  -13.0181    8.9531    0.0000 O   0  0
   -9.1180    8.2156    0.0000 C   0  0
   -7.8164    7.4702    0.0000 C   0  0
   -3.9021    3.7404    0.0000 C   0  0
   -2.6005    2.9949    0.0000 C   0  0
   -1.2990    0.7500    0.0000 N   0  0
   -1.2990   -0.7500    0.0000 C   0  0
   -2.4133   -1.7530    0.0000 C   0  0
   -1.8032   -3.1233    0.0000 C   0  0
   -0.3114   -2.9665    0.0000 S   0  0
    0.0000   -1.5000    0.0000 C   0  0
  1  2  1  0
  2  3  2  0
  3  4  1  0
  4  5  1  0
  5  6  3  0
  4  7  2  0
  7  8  1  0
  8  9  1  0
  8 10  2  0
 10  2  1  0
 10 11  1  0
 11 12  1  0
 12 13  2  0
 13 14  1  0
 14 15  1  0
 16 15  1  4
 16 17  1  0
 17 18  1  0
 18 19  1  0
 19 20  1  4
 20 21  1  0
 21 22  1  0
 22 23  2  0
 23 24  1  0
 24 25  2  0
 25 26  1  0
 26 27  1  0
 26 28  2  0
 26 29  2  0
 25 30  1  0
 30 31  2  0
 31 22  1  0
 19 32  1  0
 32 33  1  0
 33 16  1  0
 14 34  2  0
 34 35  1  0
 35 36  1  0
 36 37  2  0
 37 38  1  0
 38 39  1  0
 39 12  1  0
 39 35  2  0
M  END
> <Smiles>
Cc1cc(C#N)cc(C)c1Oc1nc(NC2CCC(NCc3ccc(S(C)(=O)=O)cc3)CC2)nc2ccsc12

> <IC50_uM>
0.355

> <pIC50>
6.449771647

> <Activity>
1

$$$$

  SciTegic10102310092D

 31 33  0  0  0  0            999 V2000
    3.1676   -7.5606    0.0000 C   0  0
    1.7006   -7.2475    0.0000 C   0  0
    0.6960   -8.3614    0.0000 C   0  0
   -0.7710   -8.0483    0.0000 C   0  0
   -1.7756   -9.1622    0.0000 C   0  0
   -1.2333   -6.6213    0.0000 C   0  0
   -0.2287   -5.5075    0.0000 C   0  0
   -0.6913   -4.0797    0.0000 S   0  0
   -2.1584   -3.7671    0.0000 O   0  0
   -1.6957   -5.1937    0.0000 O   0  0
    0.3114   -2.9665    0.0000 C   0  0
    1.8032   -3.1233    0.0000 C   0  0
    2.5551   -4.4192    0.0000 C   0  0
    1.8074   -5.7196    0.0000 O   0  0
    4.0559   -4.4171    0.0000 N   0  0
    4.8090   -5.7153    0.0000 C   0  0  3  0  0  0
    4.0613   -7.0156    0.0000 C   0  0
    6.3098   -5.7131    0.0000 C   0  0
    7.0575   -4.4127    0.0000 N   0  0
    7.0625   -7.0106    0.0000 O   0  0
    2.4133   -1.7530    0.0000 N   0  0
    1.2990   -0.7500    0.0000 C   0  0
    1.2990    0.7500    0.0000 C   0  0
    0.0000    1.5000    0.0000 C   0  0
   -1.2990    0.7500    0.0000 C   0  0
   -2.6003    1.4977    0.0000 N   0  3
   -3.8983    0.7459    0.0000 O   0  0
   -2.6030    2.9977    0.0000 O   0  5
   -1.2990   -0.7500    0.0000 C   0  0
    0.0000   -1.5000    0.0000 C   0  0
    1.2383   -5.8206    0.0000 C   0  0
  1  2  1  0
  2  3  2  0
  3  4  1  0
  4  5  1  0
  4  6  2  0
  6  7  1  0
  7  8  1  0
  8  9  2  0
  8 10  2  0
  8 11  1  0
 11 12  2  0
 12 13  1  0
 13 14  2  0
 13 15  1  0
 15 16  1  0
 16 17  1  4
 16 18  1  0
 18 19  1  0
 18 20  2  0
 12 21  1  0
 21 22  1  0
 22 23  2  0
 23 24  1  0
 24 25  2  0
 25 26  1  0
 26 27  2  0
 26 28  1  0
 25 29  1  0
 29 30  2  0
 30 11  1  0
 30 22  1  0
  7 31  2  0
 31  2  1  0
M  CHG  2  26   1  28  -1
M  END
> <Smiles>
Cc1cc(C)cc(S(=O)(=O)c2c(C(=O)NC(C)C(N)=O)[nH]c3ccc([N+](=O)[O-])cc23)c1

> <IC50_uM>
0.362

> <pIC50>
6.441291429

> <Activity>
1

$$$$

  SciTegic10102310092D

 44 47  0  0  1  0            999 V2000
   12.9842    1.5415    0.0000 C   0  0
   11.6901    0.7829    0.0000 C   0  0
   10.8210    1.2774    0.0000 C   0  0
   11.6992   -0.7179    0.0000 C   0  0
   10.4044   -1.4769    0.0000 N   0  0
    9.1015   -0.7321    0.0000 C   0  0
    9.0941    0.7687    0.0000 C   0  0  1  0  0  0
    9.9578    1.2727    0.0000 O   0  0
    7.7912    1.5136    0.0000 C   0  0  2  0  0  0
    6.4933    0.7599    0.0000 C   0  0
    5.1912    1.5062    0.0000 C   0  0
    5.1833    3.0062    0.0000 C   0  0
    3.8804    3.7494    0.0000 C   0  0
    2.5852    2.9927    0.0000 C   0  0
    2.5930    1.4927    0.0000 C   0  0
    3.8960    0.7495    0.0000 C   0  0
    7.7838    3.0144    0.0000 N   0  0
    6.4808    3.7592    0.0000 C   0  0
    5.6171    3.2553    0.0000 O   0  0
    6.4735    5.2601    0.0000 C   0  0
    5.1705    6.0049    0.0000 C   0  0
    3.8762    5.2467    0.0000 C   0  0
    2.5725    5.9885    0.0000 C   0  0
    1.2782    5.2303    0.0000 O   0  0
    2.5630    7.4884    0.0000 O   0  0
    3.8573    8.2466    0.0000 C   0  0
    3.8478    9.7466    0.0000 C   0  0
    5.1420   10.5048    0.0000 C   0  0
    5.1325   12.0048    0.0000 O   0  0
    6.4458    9.7631    0.0000 C   0  0
    6.4553    8.2631    0.0000 C   0  0
    5.1610    7.5049    0.0000 C   0  0
   10.4118   -2.9777    0.0000 S   0  0
    9.1092   -2.2339    0.0000 O   0  0
    9.1162   -3.7337    0.0000 O   0  0
   11.7147   -3.7226    0.0000 C   0  0
   13.0106   -2.9670    0.0000 C   0  0
   14.3128   -3.7115    0.0000 C   0  0
   14.3192   -5.2115    0.0000 C   0  0
   15.6206   -5.9590    0.0000 N   0  3
   15.6249   -7.4590    0.0000 O   0  0
   16.9177   -5.2057    0.0000 O   0  5
   13.0234   -5.9670    0.0000 C   0  0
   11.7211   -5.2226    0.0000 C   0  0
  1  2  1  0
  2  3  1  0
  2  4  1  0
  4  5  1  0
  5  6  1  0
  6  7  1  0
  7  8  1  6
  7  9  1  0
  9 10  1  6
 10 11  1  0
 11 12  2  0
 12 13  1  0
 13 14  2  0
 14 15  1  0
 15 16  2  0
 16 11  1  0
  9 17  1  0
 17 18  1  0
 18 19  2  0
 18 20  1  0
 20 21  1  0
 21 22  2  0
 22 23  1  0
 23 24  2  0
 23 25  1  0
 25 26  1  0
 26 27  2  0
 27 28  1  0
 28 29  1  0
 28 30  2  0
 30 31  1  0
 31 32  2  0
 32 21  1  0
 32 26  1  0
  5 33  1  0
 33 34  2  0
 33 35  2  0
 33 36  1  0
 36 37  2  0
 37 38  1  0
 38 39  2  0
 39 40  1  0
 40 41  2  0
 40 42  1  0
 39 43  1  0
 43 44  2  0
 44 36  1  0
M  CHG  2  40   1  42  -1
M  END
> <Smiles>
CC(C)CN(C[C@@H](O)[C@H](Cc1ccccc1)NC(=O)Cc1cc(=O)oc2cc(O)ccc12)S(=O)(=O)c1ccc([N+](=O)[O-])cc1

> <IC50_uM>
0.367

> <pIC50>
6.435333936

> <Activity>
1

$$$$

  SciTegic10102310092D

 27 31  0  0  0  0            999 V2000
   -2.1584   -3.7671    0.0000 O   0  0
   -0.6913   -4.0797    0.0000 S   0  0
   -1.1543   -2.6530    0.0000 O   0  0
    0.3114   -2.9665    0.0000 C   0  0
    1.8032   -3.1233    0.0000 C   0  0
    2.5536   -4.4230    0.0000 C   0  0
    2.0412   -5.8141    0.0000 N   0  0
    3.2305   -6.7268    0.0000 C   0  0
    3.3479   -8.2222    0.0000 C   0  0
    4.7016   -8.8683    0.0000 C   0  0
    5.9380   -8.0190    0.0000 C   0  0
    5.8206   -6.5236    0.0000 N   0  0
    4.4669   -5.8775    0.0000 C   0  0
    4.0417   -4.4398    0.0000 N   0  0
    2.4133   -1.7530    0.0000 N   0  0
    1.2990   -0.7500    0.0000 C   0  0
    1.2990    0.7500    0.0000 C   0  0
    0.0000    1.5000    0.0000 C   0  0
   -1.2990    0.7500    0.0000 C   0  0
   -2.5981    1.5000    0.0000 Br  0  0
   -1.2990   -0.7500    0.0000 C   0  0
    0.0000   -1.5000    0.0000 C   0  0
   -0.2287   -5.5075    0.0000 N   0  0
   -1.1182   -6.6994    0.0000 C   0  0
   -0.2375   -7.9136    0.0000 C   0  0
    1.1895   -7.4513    0.0000 C   0  0
    1.1907   -5.9513    0.0000 C   0  0
  1  2  2  0
  2  3  2  0
  2  4  1  0
  4  5  2  0
  5  6  1  0
  6  7  2  0
  7  8  1  0
  8  9  2  0
  9 10  1  0
 10 11  2  0
 11 12  1  0
 12 13  2  0
 13  8  1  0
 13 14  1  0
 14  6  1  0
  5 15  1  0
 15 16  1  0
 16 17  2  0
 17 18  1  0
 18 19  2  0
 19 20  1  0
 19 21  1  0
 21 22  2  0
 22  4  1  0
 22 16  1  0
  2 23  1  0
 23 24  1  0
 24 25  1  0
 25 26  1  0
 26 27  1  0
 27 23  1  0
M  END
> <Smiles>
O=S(=O)(c1c(-c2nc3cccnc3[nH]2)[nH]c2ccc(Br)cc12)N1CCCC1

> <IC50_uM>
0.37

> <pIC50>
6.431798276

> <Activity>
1

$$$$

  SciTegic10102310092D

 31 34  0  0  0  0            999 V2000
   -2.6407    7.4587    0.0000 C   0  0
   -1.3480    8.2195    0.0000 O   0  0
   -0.0415    7.4808    0.0000 C   0  0
    1.2523    8.2398    0.0000 C   0  0
    2.5565    7.4988    0.0000 C   0  0
    2.5670    5.9988    0.0000 C   0  0
    3.8704    5.2547    0.0000 C   0  0
    5.1655    6.0115    0.0000 O   0  0
    3.8787    3.7539    0.0000 C   0  0
    5.1821    3.0099    0.0000 S   0  0
    5.1903    1.5091    0.0000 C   0  0
    6.4920    0.7636    0.0000 N   0  0
    6.4972   -0.7364    0.0000 C   0  0
    7.7988   -1.4819    0.0000 O   0  0
    5.2007   -1.4909    0.0000 C   0  0
    5.2059   -2.9909    0.0000 C   0  0
    3.8990   -0.7455    0.0000 C   0  0
    2.6003   -1.4977    0.0000 C   0  0
    1.2990   -0.7500    0.0000 C   0  0
    1.2990    0.7500    0.0000 C   0  0
    0.0000    1.5000    0.0000 C   0  0
   -1.2990    0.7500    0.0000 C   0  0
   -1.2990   -0.7500    0.0000 C   0  0
   -2.5981   -1.5000    0.0000 C   0  0
   -2.5981   -3.0000    0.0000 C   0  0
   -1.2990   -3.7500    0.0000 C   0  0
    0.0000   -3.0000    0.0000 C   0  0
    0.0000   -1.5000    0.0000 C   0  0
    3.8939    0.7546    0.0000 N   0  0
    1.2731    5.2399    0.0000 C   0  0
   -0.0311    5.9809    0.0000 C   0  0
  1  2  1  0
  2  3  1  0
  3  4  2  0
  4  5  1  0
  5  6  2  0
  6  7  1  0
  7  8  2  0
  7  9  1  0
  9 10  1  0
 10 11  1  0
 11 12  2  0
 12 13  1  0
 13 14  1  0
 13 15  2  0
 15 16  1  0
 15 17  1  0
 17 18  1  0
 18 19  1  0
 19 20  2  0
 20 21  1  0
 21 22  2  0
 22 23  1  0
 23 24  2  0
 24 25  1  0
 25 26  2  0
 26 27  1  0
 27 28  2  0
 28 19  1  0
 28 23  1  0
 17 29  2  0
 29 11  1  0
  6 30  1  0
 30 31  2  0
 31  3  1  0
M  END
> <Smiles>
COc1ccc(C(=O)CSc2nc(O)c(C)c(Cc3cccc4ccccc34)n2)cc1

> <IC50_uM>
0.37

> <pIC50>
6.431798276

> <Activity>
1

$$$$

  SciTegic10102310092D

 43 46  0  0  1  0            999 V2000
   14.3120    5.2512    0.0000 C   0  0
   14.3068    3.7513    0.0000 O   0  0
   13.0049    3.0045    0.0000 C   0  0
   11.7064    3.7556    0.0000 C   0  0
   10.4068    3.0066    0.0000 C   0  0
   10.4056    1.5066    0.0000 C   0  0
    9.1053    0.7572    0.0000 S   0  0
    7.8071    1.5086    0.0000 O   0  0
    7.8053    0.0088    0.0000 O   0  0
    9.1031   -0.7436    0.0000 N   0  0
   10.4005   -1.4981    0.0000 C   0  0
   10.3967   -2.9990    0.0000 C   0  0
   11.6934   -3.7531    0.0000 C   0  0
    9.5293   -3.4965    0.0000 C   0  0
    7.8028   -1.4930    0.0000 C   0  0
    7.8007   -2.9938    0.0000 C   0  0  1  0  0  0
    8.6661   -3.4948    0.0000 O   0  0
    6.5003   -3.7432    0.0000 C   0  0  2  0  0  0
    5.1998   -2.9940    0.0000 C   0  0
    3.9003   -3.7449    0.0000 C   0  0
    3.8977   -5.2449    0.0000 C   0  0
    2.5973   -5.9927    0.0000 C   0  0
    1.2996   -5.2404    0.0000 C   0  0
    1.3022   -3.7404    0.0000 C   0  0
    2.6025   -2.9927    0.0000 C   0  0
    6.4982   -5.2440    0.0000 N   0  0
    5.1978   -5.9934    0.0000 C   0  0
    4.3324   -5.4925    0.0000 O   0  0
    5.1957   -7.4943    0.0000 C   0  0
    6.4952   -8.2434    0.0000 C   0  0
    6.4962   -9.7434    0.0000 C   0  0
    7.7957  -10.4926    0.0000 C   0  0
    7.7966  -11.9926    0.0000 C   0  0
    6.4981  -12.7434    0.0000 C   0  0
    6.4959  -14.2443    0.0000 O   0  0
    5.1963  -14.9933    0.0000 C   0  0
    5.1986  -11.9943    0.0000 C   0  0
    5.1976  -10.4943    0.0000 C   0  0
    3.8981   -9.7451    0.0000 O   0  0
    3.8972   -8.2451    0.0000 C   0  0
    2.5976   -7.4959    0.0000 O   0  0
   11.7041    0.7556    0.0000 C   0  0
   13.0037    1.5045    0.0000 C   0  0
  1  2  1  0
  2  3  1  0
  3  4  2  0
  4  5  1  0
  5  6  2  0
  6  7  1  0
  7  8  2  0
  7  9  2  0
  7 10  1  0
 10 11  1  0
 11 12  1  0
 12 13  1  0
 12 14  1  0
 10 15  1  0
 15 16  1  0
 16 17  1  1
 16 18  1  0
 18 19  1  1
 19 20  1  0
 20 21  2  0
 21 22  1  0
 22 23  2  0
 23 24  1  0
 24 25  2  0
 25 20  1  0
 18 26  1  0
 26 27  1  0
 27 28  2  0
 27 29  1  0
 29 30  2  0
 30 31  1  0
 31 32  2  0
 32 33  1  0
 33 34  2  0
 34 35  1  0
 35 36  1  0
 34 37  1  0
 37 38  2  0
 38 31  1  0
 38 39  1  0
 39 40  1  0
 40 29  1  0
 40 41  2  0
  6 42  1  0
 42 43  2  0
 43  3  1  0
M  END
> <Smiles>
COc1ccc(S(=O)(=O)N(CC(C)C)C[C@@H](O)[C@H](Cc2ccccc2)NC(=O)c2cc3ccc(OC)cc3oc2=O)cc1

> <IC50_uM>
0.3704

> <pIC50>
6.431329022

> <Activity>
1

$$$$

  SciTegic10102310092D

 42 45  0  0  0  0            999 V2000
   -2.9370    5.3138    0.0000 C   0  0  3  0  0  0
   -3.5545    6.6808    0.0000 C   0  0
   -1.4681    5.0099    0.0000 C   0  0
   -0.3580    6.0162    0.0000 C   0  0
   -0.6739    7.4825    0.0000 C   0  0
   -1.3032    3.5190    0.0000 C   0  0  3  0  0  0
   -0.0031    2.7742    0.0000 C   0  0
    1.2946    3.5282    0.0000 C   0  0
    2.6464    2.9080    0.0000 N   0  0
    3.6493    4.0234    0.0000 C   0  0
    5.1392    3.8647    0.0000 C   0  0
    5.7486    2.4932    0.0000 C   0  0
    4.9860    1.2162    0.0000 N   0  0
    5.9866    0.0987    0.0000 C   0  0
    5.6679   -1.3653    0.0000 C   0  0
    4.2386   -1.8230    0.0000 C   0  0
    3.7869   -3.2400    0.0000 C   0  0
    4.6681   -4.4538    0.0000 C   0  0
    2.2869   -3.2305    0.0000 C   0  0
    1.3961   -4.4352    0.0000 C   0  0
   -0.0944   -4.2668    0.0000 C   0  0
    1.8324   -1.8010    0.0000 C   0  0
    0.4088   -1.3285    0.0000 O   0  0
    3.0515   -0.9270    0.0000 N   0  0
    7.2060    2.1971    0.0000 C   0  0
    8.3166    3.2027    0.0000 C   0  0
    9.7456    2.7439    0.0000 C   0  0
   10.0621    1.2776    0.0000 O   0  0
   10.8575    3.7507    0.0000 O   0  0
    7.3586    0.7049    0.0000 C   0  0
    8.6555   -0.0487    0.0000 C   0  0
    2.8985    5.3220    0.0000 C   0  0
    3.5041    6.6923    0.0000 C   0  0
    2.6194    7.9047    0.0000 C   0  0
    3.2261    9.2774    0.0000 C   0  0
    4.7174    9.4378    0.0000 O   0  0
    2.3418   10.4891    0.0000 O   0  0
    1.4315    5.0091    0.0000 C   0  0
    0.3101    6.0054    0.0000 C   0  0
   -2.6701    2.9015    0.0000 N   0  0
   -3.6799    4.0107    0.0000 C   0  0
   -5.1708    3.8458    0.0000 O   0  0
  1  2  1  4
  1  3  1  0
  3  4  2  0
  4  5  1  0
  3  6  1  0
  6  7  1  4
  7  8  1  0
  8  9  1  0
  9 10  1  0
 10 11  1  0
 11 12  2  0
 12 13  1  0
 13 14  2  0
 14 15  1  0
 15 16  2  0
 16 17  1  0
 17 18  1  0
 17 19  2  0
 19 20  1  0
 20 21  2  0
 19 22  1  0
 22 23  2  0
 16 24  1  0
 24 22  1  0
 12 25  1  0
 25 26  1  0
 26 27  1  0
 27 28  1  0
 27 29  2  0
 25 30  2  0
 30 14  1  0
 30 31  1  0
 10 32  2  0
 32 33  1  0
 33 34  1  0
 34 35  1  0
 35 36  1  0
 35 37  2  0
 32 38  1  0
 38  8  2  0
 38 39  1  0
  6 40  1  0
 40 41  1  0
 41  1  1  0
 41 42  2  0
M  END
> <Smiles>
C1(C)\C(=C/C)\C(Cc2[nH]c(\C=C(/N=C3\C=C(\C(C)=C(C=C)C4=O)/N4)\C(CC(O)=O)=C3C)c(CCC(O)=O)c2C)NC1=O

> <IC50_uM>
0.371535229

> <pIC50>
6.43

> <Activity>
1

$$$$

  SciTegic10102310092D

 35 37  0  0  0  0            999 V2000
    2.5951   -3.0031    0.0000 C   0  0
    2.5973   -1.5031    0.0000 O   0  0
    1.2990   -0.7500    0.0000 C   0  0
    1.2990    0.7500    0.0000 C   0  0
    0.0000    1.5000    0.0000 C   0  0
   -0.0031    3.0008    0.0000 O   0  0
   -1.3032    3.7490    0.0000 C   0  0
   -1.2990    0.7500    0.0000 C   0  0
   -1.2990   -0.7500    0.0000 C   0  0
   -2.5972   -1.5031    0.0000 C   0  0
   -3.8976   -0.7554    0.0000 O   0  0
   -2.5951   -3.0039    0.0000 C   0  0
   -1.2935   -3.7495    0.0000 C   0  0
   -1.2883   -5.2495    0.0000 C   0  0
    0.0134   -5.9950    0.0000 Cl  0  0
   -2.5847   -6.0040    0.0000 C   0  0
   -3.8863   -5.2585    0.0000 C   0  0
   -3.8915   -3.7585    0.0000 C   0  0
   -5.1954   -3.0153    0.0000 O   0  0
   -6.4915   -3.7721    0.0000 C   0  0
   -7.7954   -3.0289    0.0000 C   0  0
   -7.8032   -1.5289    0.0000 O   0  0
   -9.0914   -3.7857    0.0000 N   0  0
  -10.3953   -3.0425    0.0000 C   0  0
  -10.4007   -1.5425    0.0000 C   0  0
  -11.7023   -0.7971    0.0000 C   0  0
  -12.9987   -1.5516    0.0000 C   0  0
  -14.3011   -0.8058    0.0000 S   0  0
  -15.5973   -1.5608    0.0000 N   0  0
  -14.3073    0.6942    0.0000 O   0  0
  -15.6031   -0.0610    0.0000 O   0  0
  -12.9934   -3.0516    0.0000 C   0  0
  -11.6918   -3.7970    0.0000 C   0  0
  -11.6865   -5.2970    0.0000 C   0  0
    0.0000   -1.5000    0.0000 C   0  0
  1  2  1  0
  2  3  1  0
  3  4  2  0
  4  5  1  0
  5  6  1  0
  6  7  1  0
  5  8  2  0
  8  9  1  0
  9 10  1  0
 10 11  2  0
 10 12  1  0
 12 13  2  0
 13 14  1  0
 14 15  1  0
 14 16  2  0
 16 17  1  0
 17 18  2  0
 18 12  1  0
 18 19  1  0
 19 20  1  0
 20 21  1  0
 21 22  2  0
 21 23  1  0
 23 24  1  0
 24 25  2  0
 25 26  1  0
 26 27  2  0
 27 28  1  0
 28 29  1  0
 28 30  2  0
 28 31  2  0
 27 32  1  0
 32 33  2  0
 33 24  1  0
 33 34  1  0
  9 35  2  0
 35  3  1  0
M  END
> <Smiles>
COc1cc(OC)cc(C(=O)c2cc(Cl)ccc2OCC(=O)Nc2ccc(S(N)(=O)=O)cc2C)c1

> <IC50_uM>
0.37154

> <pIC50>
6.429994423

> <Activity>
1

$$$$

  SciTegic10102310092D

 31 34  0  0  0  0            999 V2000
    2.5981   -1.5000    0.0000 C   0  0
    1.2990   -0.7500    0.0000 C   0  0
    1.2990    0.7500    0.0000 C   0  0
    0.0000    1.5000    0.0000 C   0  0
    0.0000    3.0008    0.0000 C   0  0
    0.0000    4.5008    0.0000 N   0  0
   -1.2990    0.7500    0.0000 C   0  0
   -1.2990   -0.7500    0.0000 C   0  0
   -2.5981   -1.5000    0.0000 C   0  0
    0.0000   -1.5000    0.0000 C   0  0
    0.0031   -3.0008    0.0000 O   0  0
    1.3039   -3.7494    0.0000 C   0  0
    1.3092   -5.2494    0.0000 C   0  0
    2.6108   -5.9949    0.0000 C   0  0
    3.9073   -5.2404    0.0000 N   0  0
    3.9021   -3.7404    0.0000 C   0  0
    5.1977   -2.9829    0.0000 N   0  0
    5.1903   -1.4820    0.0000 C   0  0
    6.4841   -0.7230    0.0000 C   0  0
    6.4738    0.7770    0.0000 C   0  0
    5.1696    1.5180    0.0000 N   0  0
    5.1561    3.0188    0.0000 C   0  0
    3.8501    3.7583    0.0000 C   0  0
    3.8345    5.2582    0.0000 C   0  0
    2.5277    5.9947    0.0000 C   0  0
    1.2365    5.2313    0.0000 C   0  0
    1.2521    3.7314    0.0000 C   0  0
    2.5588    2.9949    0.0000 C   0  0
    3.8757    0.7590    0.0000 C   0  0
    3.8861   -0.7410    0.0000 C   0  0
    2.6004   -2.9949    0.0000 N   0  0
  1  2  1  0
  2  3  2  0
  3  4  1  0
  4  5  1  0
  5  6  3  0
  4  7  2  0
  7  8  1  0
  8  9  1  0
  8 10  2  0
 10  2  1  0
 10 11  1  0
 11 12  1  0
 12 13  2  0
 13 14  1  0
 14 15  2  0
 15 16  1  0
 16 17  1  0
 17 18  1  0
 18 19  1  0
 19 20  1  0
 20 21  1  0
 21 22  1  0
 22 23  1  0
 23 24  2  0
 24 25  1  0
 25 26  2  0
 26 27  1  0
 27 28  2  0
 28 23  1  0
 21 29  1  0
 29 30  1  0
 30 18  1  0
 16 31  2  0
 31 12  1  0
M  END
> <Smiles>
Cc1cc(C#N)cc(C)c1Oc1ccnc(NC2CCN(Cc3ccccc3)CC2)n1

> <IC50_uM>
0.372

> <pIC50>
6.42945706

> <Activity>
1

$$$$

  SciTegic10102310092D

 45 48  0  0  1  0            999 V2000
  -16.8657   -0.8225    0.0000 C   0  0
  -15.5599   -1.5607    0.0000 O   0  0
  -14.2665   -0.7994    0.0000 C   0  0
  -14.2760    0.7006    0.0000 C   0  0
  -12.9818    1.4588    0.0000 C   0  0
  -11.6780    0.7171    0.0000 C   0  0
  -10.3837    1.4753    0.0000 C   0  0
  -10.3902    2.9761    0.0000 C   0  0
   -9.0941    3.7329    0.0000 C   0  0
   -8.2258    3.2369    0.0000 O   0  0
   -9.1005    5.2337    0.0000 N   0  0
   -7.8045    5.9905    0.0000 C   0  0  1  0  0  0
   -6.5028    5.2434    0.0000 C   0  0
   -6.4981    3.7426    0.0000 C   0  0
   -7.7932    2.9857    0.0000 C   0  0
   -7.7854    1.4857    0.0000 C   0  0
   -6.4824    0.7425    0.0000 C   0  0
   -5.1873    1.4993    0.0000 C   0  0
   -5.1951    2.9992    0.0000 C   0  0
   -7.8109    7.4913    0.0000 C   0  0  2  0  0  0
   -8.6792    7.9873    0.0000 O   0  0
   -6.5149    8.2481    0.0000 C   0  0
   -6.5213    9.7489    0.0000 N   0  0
   -7.8260   10.4907    0.0000 C   0  0
   -9.1212    9.7324    0.0000 C   0  0
  -10.4252   10.4738    0.0000 C   0  0
   -9.1149    8.7325    0.0000 C   0  0
   -5.2253   10.5057    0.0000 S   0  0
   -3.9228    9.7617    0.0000 O   0  0
   -5.2181    9.0057    0.0000 O   0  0
   -5.2317   12.0065    0.0000 C   0  0
   -3.9359   12.7621    0.0000 C   0  0
   -3.9423   14.2621    0.0000 C   0  0
   -5.2445   15.0065    0.0000 C   0  0
   -5.2540   16.5073    0.0000 N   0  3
   -6.5573   17.2499    0.0000 O   0  0
   -3.9595   17.2651    0.0000 O   0  5
   -6.5403   14.2509    0.0000 C   0  0
   -6.5339   12.7509    0.0000 C   0  0
   -9.0800    0.7335    0.0000 C   0  0
   -9.0705   -0.7664    0.0000 C   0  0
   -7.7667   -1.5082    0.0000 O   0  0
  -10.3647   -1.5247    0.0000 O   0  0
  -11.6685   -0.7829    0.0000 C   0  0
  -12.9628   -1.5411    0.0000 C   0  0
  1  2  1  0
  2  3  1  0
  3  4  2  0
  4  5  1  0
  5  6  2  0
  6  7  1  0
  7  8  1  0
  8  9  1  0
  9 10  2  0
  9 11  1  0
 12 11  1  6
 12 13  1  0
 13 14  1  0
 14 15  2  0
 15 16  1  0
 16 17  2  0
 17 18  1  0
 18 19  2  0
 19 14  1  0
 12 20  1  0
 20 21  1  6
 20 22  1  0
 22 23  1  0
 23 24  1  0
 24 25  1  0
 25 26  1  0
 25 27  1  0
 23 28  1  0
 28 29  2  0
 28 30  2  0
 28 31  1  0
 31 32  2  0
 32 33  1  0
 33 34  2  0
 34 35  1  0
 35 36  2  0
 35 37  1  0
 34 38  1  0
 38 39  2  0
 39 31  1  0
  7 40  2  0
 40 41  1  0
 41 42  2  0
 41 43  1  0
 43 44  1  0
 44  6  1  0
 44 45  2  0
 45  3  1  0
M  CHG  2  35   1  37  -1
M  END
> <Smiles>
COc1ccc2c(CC(=O)N[C@@H](Cc3ccccc3)[C@H](O)CN(CC(C)C)S(=O)(=O)c3ccc([N+](=O)[O-])cc3)cc(=O)oc2c1

> <IC50_uM>
0.3728

> <pIC50>
6.428524096

> <Activity>
1

$$$$

  SciTegic10102310092D

 44 47  0  0  1  0            999 V2000
   12.9842    1.5415    0.0000 C   0  0
   11.6901    0.7829    0.0000 C   0  0
   10.8210    1.2774    0.0000 C   0  0
   11.6992   -0.7179    0.0000 C   0  0
   10.4044   -1.4769    0.0000 N   0  0
    9.1015   -0.7321    0.0000 C   0  0
    9.0941    0.7687    0.0000 C   0  0  1  0  0  0
    9.9578    1.2727    0.0000 O   0  0
    7.7912    1.5136    0.0000 C   0  0  2  0  0  0
    6.4933    0.7599    0.0000 C   0  0
    5.1912    1.5062    0.0000 C   0  0
    5.1833    3.0062    0.0000 C   0  0
    3.8804    3.7494    0.0000 C   0  0
    2.5852    2.9927    0.0000 C   0  0
    2.5930    1.4927    0.0000 C   0  0
    3.8960    0.7495    0.0000 C   0  0
    7.7838    3.0144    0.0000 N   0  0
    6.4808    3.7592    0.0000 C   0  0
    5.6171    3.2553    0.0000 O   0  0
    6.4735    5.2601    0.0000 C   0  0
    5.1705    6.0049    0.0000 C   0  0
    3.8762    5.2467    0.0000 C   0  0
    2.5725    5.9885    0.0000 C   0  0
    1.2782    5.2303    0.0000 C   0  0
   -0.0255    5.9720    0.0000 C   0  0
   -0.0350    7.4720    0.0000 C   0  0
   -1.3388    8.2138    0.0000 O   0  0
    1.2592    8.2302    0.0000 C   0  0
    2.5630    7.4884    0.0000 C   0  0
    3.8573    8.2466    0.0000 O   0  0
    5.1610    7.5049    0.0000 C   0  0
    6.4553    8.2631    0.0000 O   0  0
   10.4118   -2.9777    0.0000 S   0  0
    9.1092   -2.2339    0.0000 O   0  0
    9.1162   -3.7337    0.0000 O   0  0
   11.7147   -3.7226    0.0000 C   0  0
   13.0106   -2.9670    0.0000 C   0  0
   14.3128   -3.7115    0.0000 C   0  0
   14.3192   -5.2115    0.0000 C   0  0
   15.6206   -5.9590    0.0000 N   0  3
   15.6249   -7.4590    0.0000 O   0  0
   16.9177   -5.2057    0.0000 O   0  5
   13.0234   -5.9670    0.0000 C   0  0
   11.7211   -5.2226    0.0000 C   0  0
  1  2  1  0
  2  3  1  0
  2  4  1  0
  4  5  1  0
  5  6  1  0
  6  7  1  0
  7  8  1  6
  7  9  1  0
  9 10  1  6
 10 11  1  0
 11 12  2  0
 12 13  1  0
 13 14  2  0
 14 15  1  0
 15 16  2  0
 16 11  1  0
  9 17  1  0
 17 18  1  0
 18 19  2  0
 18 20  1  0
 20 21  1  0
 21 22  2  0
 22 23  1  0
 23 24  2  0
 24 25  1  0
 25 26  2  0
 26 27  1  0
 26 28  1  0
 28 29  2  0
 29 23  1  0
 29 30  1  0
 30 31  1  0
 31 21  1  0
 31 32  2  0
  5 33  1  0
 33 34  2  0
 33 35  2  0
 33 36  1  0
 36 37  2  0
 37 38  1  0
 38 39  2  0
 39 40  1  0
 40 41  2  0
 40 42  1  0
 39 43  1  0
 43 44  2  0
 44 36  1  0
M  CHG  2  40   1  42  -1
M  END
> <Smiles>
CC(C)CN(C[C@@H](O)[C@H](Cc1ccccc1)NC(=O)Cc1cc2ccc(O)cc2oc1=O)S(=O)(=O)c1ccc([N+](=O)[O-])cc1

> <IC50_uM>
0.3754

> <pIC50>
6.425505732

> <Activity>
1

$$$$

  SciTegic10102310092D

 37 38  0  0  0  0            999 V2000
    6.4851   -9.7648    0.0000 C   0  0
    6.4868   -8.2648    0.0000 O   0  0
    5.1884   -7.5121    0.0000 C   0  0
    3.8883   -8.2602    0.0000 O   0  0
    5.1901   -6.0113    0.0000 C   0  0
    3.8917   -5.2586    0.0000 C   0  0
    3.8934   -3.7577    0.0000 C   0  0
    2.5949   -3.0050    0.0000 C   0  0
    2.5966   -1.5042    0.0000 C   0  0
    1.2990   -0.7500    0.0000 C   0  0
    1.2990    0.7500    0.0000 C   0  0
    0.0000    1.5000    0.0000 C   0  0
    0.0000    3.0008    0.0000 C   0  0
    0.0000    4.5008    0.0000 N   0  0
   -1.2990    0.7500    0.0000 C   0  0
   -2.6003    1.4977    0.0000 O   0  0
   -3.8983    0.7459    0.0000 C   0  0
   -1.2990   -0.7500    0.0000 C   0  0
   -2.5972   -1.5031    0.0000 C   0  0
   -3.8976   -0.7554    0.0000 O   0  0
   -2.5951   -3.0039    0.0000 O   0  0
   -3.8926   -3.7566    0.0000 C   0  0
    0.0000   -1.5000    0.0000 C   0  0
    3.8990   -0.7582    0.0000 C   0  0
    3.9042    0.7419    0.0000 C   0  0
    5.2058    1.4875    0.0000 C   0  0
    5.2109    2.9883    0.0000 C   0  0
    5.2160    4.4883    0.0000 N   0  0
    6.5023    0.7331    0.0000 C   0  0
    7.8061    1.4764    0.0000 O   0  0
    9.1015    0.7202    0.0000 C   0  0
    6.4972   -0.7669    0.0000 C   0  0
    7.7929   -1.5244    0.0000 C   0  0
    9.0957   -0.7811    0.0000 O   0  0
    7.7856   -3.0252    0.0000 O   0  0
    9.0805   -3.7823    0.0000 C   0  0
    5.1956   -1.5125    0.0000 C   0  0
  1  2  1  0
  2  3  1  0
  3  4  2  0
  3  5  1  0
  5  6  1  0
  6  7  1  0
  7  8  1  0
  8  9  2  0
  9 10  1  0
 10 11  2  0
 11 12  1  0
 12 13  1  0
 13 14  3  0
 12 15  2  0
 15 16  1  0
 16 17  1  0
 15 18  1  0
 18 19  1  0
 19 20  2  0
 19 21  1  0
 21 22  1  0
 18 23  2  0
 23 10  1  0
  9 24  1  0
 24 25  2  0
 25 26  1  0
 26 27  1  0
 27 28  3  0
 26 29  2  0
 29 30  1  0
 30 31  1  0
 29 32  1  0
 32 33  1  0
 33 34  2  0
 33 35  1  0
 35 36  1  0
 32 37  2  0
 37 24  1  0
M  END
> <Smiles>
COC(=O)CCCC=C(c1cc(C#N)c(OC)c(C(=O)OC)c1)c1cc(C#N)c(OC)c(C(=O)OC)c1

> <IC50_uM>
0.38

> <pIC50>
6.420216403

> <Activity>
1

$$$$

  SciTegic10102310092D

 47 52  0  0  0  0            999 V2000
    2.5923    1.5001    0.0000 C   0  0
    3.8939    0.7546    0.0000 C   0  0
    5.1903    1.5091    0.0000 C   0  0
    6.4920    0.7636    0.0000 C   0  0
    7.7891    1.5185    0.0000 C   0  0
    9.0856    2.2729    0.0000 N   0  0
    6.4972   -0.7364    0.0000 C   0  0
    5.2007   -1.4909    0.0000 C   0  0
    5.2059   -2.9909    0.0000 C   0  0
    3.8990   -0.7455    0.0000 C   0  0
    2.6003   -1.4977    0.0000 O   0  0
    1.2990   -0.7500    0.0000 C   0  0
    1.2990    0.7500    0.0000 N   0  0
    0.0000    1.5000    0.0000 C   0  0
   -0.0031    3.0008    0.0000 N   0  0
   -1.3039    3.7494    0.0000 C   0  0
   -1.3092    5.2494    0.0000 C   0  0
   -2.6108    5.9949    0.0000 C   0  0
   -3.9073    5.2404    0.0000 N   0  0
   -5.2112    5.9836    0.0000 C   0  0
   -6.5072    5.2269    0.0000 C   0  0
   -7.8115    5.9678    0.0000 C   0  0
   -9.1053    5.2088    0.0000 C   0  0
   -9.0949    3.7089    0.0000 C   0  0
  -10.3895    2.9495    0.0000 S   0  0
  -10.3786    1.4495    0.0000 C   0  0
  -11.6941    3.6896    0.0000 O   0  0
  -11.6829    2.1899    0.0000 O   0  0
   -7.7907    2.9679    0.0000 C   0  0
   -6.4969    3.7269    0.0000 C   0  0
   -3.9021    3.7404    0.0000 C   0  0
   -2.6005    2.9949    0.0000 C   0  0
   -1.2990    0.7500    0.0000 N   0  0
   -1.2990   -0.7500    0.0000 C   0  0
   -2.4133   -1.7530    0.0000 C   0  0
   -1.8032   -3.1233    0.0000 C   0  0
   -0.3114   -2.9665    0.0000 N   0  0
    0.6913   -4.0797    0.0000 S   0  0
    2.1584   -3.7671    0.0000 O   0  0
    1.1543   -2.6529    0.0000 O   0  0
    0.2287   -5.5075    0.0000 C   0  0
    1.2334   -6.6213    0.0000 C   0  0
    0.7710   -8.0483    0.0000 C   0  0
   -0.6959   -8.3614    0.0000 C   0  0
   -1.7006   -7.2475    0.0000 C   0  0
   -1.2382   -5.8206    0.0000 C   0  0
    0.0000   -1.5000    0.0000 C   0  0
  1  2  1  0
  2  3  2  0
  3  4  1  0
  4  5  1  0
  5  6  3  0
  4  7  2  0
  7  8  1  0
  8  9  1  0
  8 10  2  0
 10  2  1  0
 10 11  1  0
 11 12  1  0
 12 13  2  0
 13 14  1  0
 14 15  1  0
 15 16  1  0
 16 17  1  0
 17 18  1  0
 18 19  1  0
 19 20  1  0
 20 21  1  0
 21 22  2  0
 22 23  1  0
 23 24  2  0
 24 25  1  0
 25 26  1  0
 25 27  2  0
 25 28  2  0
 24 29  1  0
 29 30  2  0
 30 21  1  0
 19 31  1  0
 31 32  1  0
 32 16  1  0
 14 33  2  0
 33 34  1  0
 34 35  1  0
 35 36  2  0
 36 37  1  0
 37 38  1  0
 38 39  2  0
 38 40  2  0
 38 41  1  0
 41 42  2  0
 42 43  1  0
 43 44  2  0
 44 45  1  0
 45 46  2  0
 46 41  1  0
 37 47  1  0
 47 12  1  0
 47 34  2  0
M  END
> <Smiles>
Cc1cc(C#N)cc(C)c1Oc1nc(NC2CCN(Cc3ccc(S(C)(=O)=O)cc3)CC2)nc2ccn(S(=O)(=O)c3ccccc3)c12

> <IC50_uM>
0.38

> <pIC50>
6.420216403

> <Activity>
1

$$$$

  SciTegic10102310092D

 33 36  0  0  0  0            999 V2000
    3.8805   -1.4410    0.0000 O   0  0
    2.4133   -1.7530    0.0000 C   0  0
    1.2990   -0.7500    0.0000 C   0  0
    1.2990    0.7500    0.0000 C   0  0
    0.0000    1.5000    0.0000 C   0  0
   -1.2990    0.7500    0.0000 C   0  0
   -1.2990   -0.7500    0.0000 C   0  0
    0.0000   -1.5000    0.0000 C   0  0
    0.3114   -2.9665    0.0000 C   0  0
   -0.6923   -4.0811    0.0000 O   0  0
    1.8032   -3.1233    0.0000 N   0  0
    2.5551   -4.4192    0.0000 C   0  0
    4.0559   -4.4171    0.0000 C   0  0
    4.8090   -5.7153    0.0000 O   0  0
    6.3098   -5.7131    0.0000 C   0  0
    7.0575   -4.4128    0.0000 S   0  0
    7.0629   -7.0113    0.0000 N   0  0
    8.5637   -7.0091    0.0000 C   0  0
    9.3115   -5.7088    0.0000 O   0  0
    9.3168   -8.3073    0.0000 C   0  0
   10.7977   -8.4452    0.0000 C   0  0
   11.1096   -9.9124    0.0000 C   0  0
    9.8106  -10.6624    0.0000 C   0  0
    8.6958   -9.6587    0.0000 S   0  0
    6.3148   -8.3123    0.0000 C   0  0
    7.0653   -9.6112    0.0000 C   0  0
    6.3158  -10.9105    0.0000 C   0  0
    4.8158  -10.9111    0.0000 C   0  0
    4.0653   -9.6124    0.0000 C   0  0
    2.5645   -9.6099    0.0000 N   0  3
    1.8158   -8.3100    0.0000 O   0  0
    1.8127  -10.9079    0.0000 O   0  5
    4.8148   -8.3130    0.0000 C   0  0
  1  2  2  0
  2  3  1  0
  3  4  2  0
  4  5  1  0
  5  6  2  0
  6  7  1  0
  7  8  2  0
  8  3  1  0
  8  9  1  0
  9 10  2  0
  9 11  1  0
 11  2  1  0
 11 12  1  0
 12 13  1  0
 13 14  1  0
 14 15  1  0
 15 16  2  0
 15 17  1  0
 17 18  1  0
 18 19  2  0
 18 20  1  0
 20 21  2  0
 21 22  1  0
 22 23  2  0
 23 24  1  0
 24 20  1  0
 17 25  1  0
 25 26  2  0
 26 27  1  0
 27 28  2  0
 28 29  1  0
 29 30  1  0
 30 31  2  0
 30 32  1  0
 29 33  2  0
 33 25  1  0
M  CHG  2  30   1  32  -1
M  END
> <Smiles>
O=C1c2ccccc2C(=O)N1CCOC(=S)N(C(=O)c1cccs1)c1cccc([N+](=O)[O-])c1

> <IC50_uM>
0.38

> <pIC50>
6.420216403

> <Activity>
1

$$$$

  SciTegic10102310092D

 29 32  0  0  1  0            999 V2000
    2.5981   -1.5000    0.0000 C   0  0
    1.2990   -0.7500    0.0000 C   0  0
    1.2990    0.7500    0.0000 C   0  0
    0.0000    1.5000    0.0000 C   0  0
   -1.2990    0.7500    0.0000 C   0  0
   -1.2990   -0.7500    0.0000 C   0  0
    0.0000   -1.5000    0.0000 C   0  0
    0.0000   -3.0000    0.0000 O   0  0
   -1.2990   -3.7500    0.0000 P   0  0  3  0  0  0
    0.0180   -4.4679    0.0000 O   0  0
   -2.5990   -4.4584    0.0000 O   0  0
   -3.8990   -3.7086    0.0000 C   0  0
   -5.1989   -4.4587    0.0000 C   0  0  1  0  0  0
   -5.3341   -5.9398    0.0000 C   0  0
   -6.8007   -6.2544    0.0000 C   0  0  1  0  0  0
   -7.4086   -7.6265    0.0000 N   0  0
   -6.4313   -8.7667    0.0000 C   0  0
   -6.9339  -10.1800    0.0000 C   0  0
   -5.9614  -11.3220    0.0000 C   0  0
   -8.4092  -10.4513    0.0000 C   0  0
   -8.9119  -11.8646    0.0000 O   0  0
   -9.3818   -9.3093    0.0000 N   0  0
   -8.8791   -7.8961    0.0000 C   0  0
   -9.8514   -6.7538    0.0000 O   0  0
   -7.5531   -4.9568    0.0000 C   0  0
   -6.5515   -3.8402    0.0000 C   0  0  2  0  0  0
   -6.8573   -2.3717    0.0000 O   0  0
   -2.5981   -3.0000    0.0000 O   0  0
   -2.5981   -1.5000    0.0000 C   0  0
  1  2  1  0
  2  3  2  0
  3  4  1  0
  4  5  2  0
  5  6  1  0
  6  7  2  0
  7  2  1  0
  7  8  1  0
  8  9  1  0
  9 10  2  0
  9 11  1  4
 11 12  1  0
 13 12  1  1
 13 14  1  0
 14 15  1  0
 15 16  1  1
 16 17  1  0
 17 18  2  0
 18 19  1  0
 18 20  1  0
 20 21  2  0
 20 22  1  0
 22 23  1  0
 23 16  1  0
 23 24  2  0
 15 25  1  0
 25 26  1  0
 26 13  1  0
 26 27  1  6
  9 28  1  0
 28 29  1  0
 29  6  1  0
M  END
> <Smiles>
Cc1cccc2c1OP(=O)(OC[C@H]1C[C@@H](n3cc(C)c(=O)[nH]c3=O)C[C@@H]1O)OC2

> <IC50_uM>
0.38

> <pIC50>
6.420216403

> <Activity>
1

$$$$

  SciTegic10102310092D

 22 24  0  0  0  0            999 V2000
    3.1676   -7.5606    0.0000 C   0  0
    1.7006   -7.2475    0.0000 C   0  0
    0.6960   -8.3614    0.0000 C   0  0
   -0.7710   -8.0483    0.0000 C   0  0
   -1.2333   -6.6213    0.0000 C   0  0
   -2.7003   -6.3082    0.0000 C   0  0
   -0.2287   -5.5075    0.0000 C   0  0
   -0.6913   -4.0797    0.0000 S   0  0
   -2.1584   -3.7671    0.0000 O   0  0
   -1.6957   -5.1937    0.0000 O   0  0
    0.3114   -2.9665    0.0000 N   0  0
    1.8032   -3.1233    0.0000 C   0  0
    2.5532   -4.4223    0.0000 O   0  0
    2.4133   -1.7530    0.0000 N   0  0
    1.2990   -0.7500    0.0000 C   0  0
    1.2990    0.7500    0.0000 C   0  0
    0.0000    1.5000    0.0000 C   0  0
   -1.2990    0.7500    0.0000 C   0  0
   -2.5981    1.5000    0.0000 Cl  0  0
   -1.2990   -0.7500    0.0000 C   0  0
    0.0000   -1.5000    0.0000 C   0  0
    1.2383   -5.8206    0.0000 C   0  0
  1  2  1  0
  2  3  2  0
  3  4  1  0
  4  5  2  0
  5  6  1  0
  5  7  1  0
  7  8  1  0
  8  9  2  0
  8 10  2  0
  8 11  1  0
 11 12  1  0
 12 13  2  0
 12 14  1  0
 14 15  1  0
 15 16  2  0
 16 17  1  0
 17 18  2  0
 18 19  1  0
 18 20  1  0
 20 21  2  0
 21 15  1  0
 21 11  1  0
  7 22  2  0
 22  2  1  0
M  END
> <Smiles>
Cc1ccc(C)c(S(=O)(=O)n2c(=O)[nH]c3ccc(Cl)cc32)c1

> <IC50_uM>
0.38

> <pIC50>
6.420216403

> <Activity>
1

$$$$

  SciTegic10102310092D

 24 26  0  0  0  0            999 V2000
    3.8978   -2.2504    0.0000 N   0  0
    2.5988   -1.5004    0.0000 C   0  0
    1.2990   -0.7500    0.0000 C   0  0
    1.2990    0.7500    0.0000 C   0  0
    0.0000    1.5000    0.0000 C   0  0
   -1.2990    0.7500    0.0000 C   0  0
   -2.6003    1.4977    0.0000 N   0  0
   -3.8990    0.7455    0.0000 C   0  0
   -5.2007    1.4909    0.0000 N   0  0
   -6.4972    0.7364    0.0000 C   0  0
   -6.4920   -0.7636    0.0000 C   0  0
   -5.1903   -1.5091    0.0000 C   0  0
   -5.1821   -3.0099    0.0000 N   0  0
   -3.8787   -3.7540    0.0000 C   0  0
   -3.8704   -5.2548    0.0000 C   0  0
   -2.5687   -6.0003    0.0000 C   0  0
   -2.5635   -7.5003    0.0000 C   0  0
   -3.8599   -8.2548    0.0000 C   0  0
   -3.8547   -9.7548    0.0000 F   0  0
   -5.1616   -7.5094    0.0000 C   0  0
   -5.1668   -6.0094    0.0000 C   0  0
   -3.8939   -0.7546    0.0000 N   0  0
   -1.2990   -0.7500    0.0000 C   0  0
    0.0000   -1.5000    0.0000 C   0  0
  1  2  3  0
  2  3  1  0
  3  4  2  0
  4  5  1  0
  5  6  2  0
  6  7  1  0
  7  8  1  0
  8  9  2  0
  9 10  1  0
 10 11  2  0
 11 12  1  0
 12 13  1  0
 13 14  1  0
 14 15  1  0
 15 16  2  0
 16 17  1  0
 17 18  2  0
 18 19  1  0
 18 20  1  0
 20 21  2  0
 21 15  1  0
 12 22  2  0
 22  8  1  0
  6 23  1  0
 23 24  2  0
 24  3  1  0
M  END
> <Smiles>
N#Cc1ccc(Nc2nccc(NCc3ccc(F)cc3)n2)cc1

> <IC50_uM>
0.382

> <pIC50>
6.417936637

> <Activity>
1

$$$$

  SciTegic10102310092D

 32 34  0  0  0  0            999 V2000
    3.1676   -7.5606    0.0000 C   0  0
    1.7006   -7.2475    0.0000 C   0  0
    0.6960   -8.3614    0.0000 C   0  0
   -0.7710   -8.0483    0.0000 C   0  0
   -1.7756   -9.1622    0.0000 C   0  0
   -1.2333   -6.6213    0.0000 C   0  0
   -0.2287   -5.5075    0.0000 C   0  0
   -0.6913   -4.0797    0.0000 S   0  0
   -2.1584   -3.7671    0.0000 O   0  0
   -1.6957   -5.1937    0.0000 O   0  0
    0.3114   -2.9665    0.0000 C   0  0
    1.8032   -3.1233    0.0000 C   0  0
    2.5551   -4.4192    0.0000 C   0  0
    1.8074   -5.7196    0.0000 O   0  0
    4.0559   -4.4171    0.0000 N   0  0
    4.8090   -5.7153    0.0000 C   0  0
    6.3098   -5.7131    0.0000 C   0  0
    7.0629   -7.0113    0.0000 S   0  0
    7.8150   -8.3091    0.0000 N   0  0
    8.5629   -7.0091    0.0000 O   0  0
    6.3152   -8.3116    0.0000 O   0  0
    2.4133   -1.7530    0.0000 N   0  0
    1.2990   -0.7500    0.0000 C   0  0
    1.2990    0.7500    0.0000 C   0  0
    0.0000    1.5000    0.0000 C   0  0
   -1.2990    0.7500    0.0000 C   0  0
   -2.6003    1.4977    0.0000 N   0  3
   -3.8983    0.7459    0.0000 O   0  0
   -2.6030    2.9977    0.0000 O   0  5
   -1.2990   -0.7500    0.0000 C   0  0
    0.0000   -1.5000    0.0000 C   0  0
    1.2383   -5.8206    0.0000 C   0  0
  1  2  1  0
  2  3  2  0
  3  4  1  0
  4  5  1  0
  4  6  2  0
  6  7  1  0
  7  8  1  0
  8  9  2  0
  8 10  2  0
  8 11  1  0
 11 12  2  0
 12 13  1  0
 13 14  2  0
 13 15  1  0
 15 16  1  0
 16 17  1  0
 17 18  1  0
 18 19  1  0
 18 20  2  0
 18 21  2  0
 12 22  1  0
 22 23  1  0
 23 24  2  0
 24 25  1  0
 25 26  2  0
 26 27  1  0
 27 28  2  0
 27 29  1  0
 26 30  1  0
 30 31  2  0
 31 11  1  0
 31 23  1  0
  7 32  2  0
 32  2  1  0
M  CHG  2  27   1  29  -1
M  END
> <Smiles>
Cc1cc(C)cc(S(=O)(=O)c2c(C(=O)NCCS(N)(=O)=O)[nH]c3ccc([N+](=O)[O-])cc23)c1

> <IC50_uM>
0.388

> <pIC50>
6.411168274

> <Activity>
1

$$$$

  SciTegic10102310092D

 31 33  0  0  0  0            999 V2000
    3.1676   -7.5606    0.0000 C   0  0
    1.7006   -7.2475    0.0000 C   0  0
    0.6960   -8.3614    0.0000 C   0  0
   -0.7710   -8.0483    0.0000 C   0  0
   -1.7756   -9.1622    0.0000 C   0  0
   -1.2333   -6.6213    0.0000 C   0  0
   -0.2287   -5.5075    0.0000 C   0  0
   -0.6913   -4.0797    0.0000 S   0  0
   -2.1584   -3.7671    0.0000 O   0  0
   -1.6957   -5.1937    0.0000 O   0  0
    0.3114   -2.9665    0.0000 C   0  0
    1.8032   -3.1233    0.0000 C   0  0
    2.5551   -4.4192    0.0000 C   0  0
    1.8074   -5.7196    0.0000 O   0  0
    4.0559   -4.4171    0.0000 N   0  0
    4.8090   -5.7153    0.0000 C   0  0  3  0  0  0
    4.0613   -7.0156    0.0000 C   0  0
    6.3098   -5.7131    0.0000 C   0  0
    7.0629   -7.0113    0.0000 C   0  0
    6.3152   -8.3116    0.0000 N   0  0
    8.5629   -7.0091    0.0000 O   0  0
    2.4133   -1.7530    0.0000 N   0  0
    1.2990   -0.7500    0.0000 C   0  0
    1.2990    0.7500    0.0000 C   0  0
    0.0000    1.5000    0.0000 C   0  0
   -1.2990    0.7500    0.0000 C   0  0
   -2.5981    1.5000    0.0000 Cl  0  0
   -1.2990   -0.7500    0.0000 C   0  0
   -2.5981   -1.5000    0.0000 F   0  0
    0.0000   -1.5000    0.0000 C   0  0
    1.2383   -5.8206    0.0000 C   0  0
  1  2  1  0
  2  3  2  0
  3  4  1  0
  4  5  1  0
  4  6  2  0
  6  7  1  0
  7  8  1  0
  8  9  2  0
  8 10  2  0
  8 11  1  0
 11 12  2  0
 12 13  1  0
 13 14  2  0
 13 15  1  0
 15 16  1  0
 16 17  1  4
 16 18  1  0
 18 19  1  0
 19 20  1  0
 19 21  2  0
 12 22  1  0
 22 23  1  0
 23 24  2  0
 24 25  1  0
 25 26  2  0
 26 27  1  0
 26 28  1  0
 28 29  1  0
 28 30  2  0
 30 11  1  0
 30 23  1  0
  7 31  2  0
 31  2  1  0
M  END
> <Smiles>
Cc1cc(C)cc(S(=O)(=O)c2c(C(=O)NC(C)CC(N)=O)[nH]c3ccc(Cl)c(F)c23)c1

> <IC50_uM>
0.39

> <pIC50>
6.408935393

> <Activity>
1

$$$$

  SciTegic10102310092D

 25 27  0  0  0  0            999 V2000
    2.5983   -3.0004    0.0000 C   0  0
    2.5988   -1.5004    0.0000 C   0  0  3  0  0  0
    1.2996   -2.2502    0.0000 O   0  0
    1.2990   -0.7500    0.0000 C   0  0
    1.2990    0.7500    0.0000 C   0  0
    0.0000    1.5000    0.0000 C   0  0
   -1.2990    0.7500    0.0000 C   0  0
   -1.2990   -0.7500    0.0000 C   0  0
   -2.5981   -1.5000    0.0000 Br  0  0
    0.0000   -1.5000    0.0000 C   0  0
    3.8990   -0.7508    0.0000 C   0  0
    5.1976   -1.5016    0.0000 C   0  0
    6.4971   -0.7525    0.0000 C   0  0
    6.4980    0.7475    0.0000 N   0  0
    5.1995    1.4984    0.0000 C   0  0
    5.1973    2.9992    0.0000 N   0  0
    3.8970    3.7486    0.0000 C   0  0
    3.8927    5.2486    0.0000 C   0  0
    2.5915    5.9949    0.0000 C   0  0
    1.2946    5.2413    0.0000 C   0  0
   -0.0073    5.9880    0.0000 C   0  0
   -1.3084    6.7343    0.0000 N   0  0
    1.2988    3.7413    0.0000 C   0  0
    2.6000    2.9949    0.0000 C   0  0
    3.9000    0.7492    0.0000 N   0  0
  2  1  1  4
  2  3  1  0
  2  4  1  0
  4  5  2  0
  5  6  1  0
  6  7  2  0
  7  8  1  0
  8  9  1  0
  8 10  2  0
 10  4  1  0
  2 11  1  0
 11 12  2  0
 12 13  1  0
 13 14  2  0
 14 15  1  0
 15 16  1  0
 16 17  1  0
 17 18  2  0
 18 19  1  0
 19 20  2  0
 20 21  1  0
 21 22  3  0
 20 23  1  0
 23 24  2  0
 24 17  1  0
 15 25  2  0
 25 11  1  0
M  END
> <Smiles>
CC(O)(c1cccc(Br)c1)c1ccnc(Nc2ccc(C#N)cc2)n1

> <IC50_uM>
0.39

> <pIC50>
6.408935393

> <Activity>
1

$$$$

  SciTegic10102310092D

 23 24  0  0  0  0            999 V2000
    3.8983   -0.7566    0.0000 C   0  0
    2.5973   -1.5031    0.0000 C   0  0
    1.2990   -0.7500    0.0000 C   0  0
    1.2990    0.7500    0.0000 C   0  0
    2.5981    1.5000    0.0000 C   0  0
    0.0000    1.5000    0.0000 N   0  0
   -1.2990    0.7500    0.0000 C   0  0
   -2.5981    1.5000    0.0000 O   0  0
   -1.2990   -0.7500    0.0000 C   0  0
   -2.5972   -1.5031    0.0000 N   0  0
   -2.5951   -3.0039    0.0000 C   0  0
   -1.2948   -3.7517    0.0000 C   0  0
   -3.8926   -3.7566    0.0000 O   0  0
    0.0000   -1.5000    0.0000 C   0  0
    0.0031   -3.0008    0.0000 C   0  0
    1.3039   -3.7494    0.0000 C   0  0
    1.3092   -5.2494    0.0000 C   0  0
    2.6108   -5.9949    0.0000 C   0  0
    2.6160   -7.4949    0.0000 C   0  0
    3.9073   -5.2404    0.0000 C   0  0
    3.9021   -3.7404    0.0000 C   0  0
    5.1985   -2.9859    0.0000 C   0  0
    2.6004   -2.9949    0.0000 C   0  0
  1  2  1  0
  2  3  1  0
  3  4  2  0
  4  5  1  0
  4  6  1  0
  6  7  1  0
  7  8  2  0
  7  9  1  0
  9 10  1  0
 10 11  1  0
 11 12  1  0
 11 13  2  0
  9 14  2  0
 14  3  1  0
 14 15  1  0
 15 16  1  0
 16 17  2  0
 17 18  1  0
 18 19  1  0
 18 20  2  0
 20 21  1  0
 21 22  1  0
 21 23  2  0
 23 16  1  0
M  END
> <Smiles>
CCc1c(C)[nH]c(=O)c(NC(C)=O)c1Cc1cc(C)cc(C)c1

> <IC50_uM>
0.398

> <pIC50>
6.400116928

> <Activity>
1

$$$$

  SciTegic10102310092D

 40 43  0  0  1  0            999 V2000
    9.0970   -8.2502    0.0000 C   0  0
    7.7956   -7.5043    0.0000 C   0  0
    7.7927   -6.5043    0.0000 C   0  0
    6.4977   -8.2580    0.0000 C   0  0
    5.1956   -7.5117    0.0000 N   0  0
    5.1944   -6.0109    0.0000 C   0  0
    6.4931   -5.2586    0.0000 C   0  0  1  0  0  0
    7.3597   -5.7577    0.0000 O   0  0
    6.4919   -3.7578    0.0000 C   0  0  2  0  0  0
    5.1929   -3.0062    0.0000 C   0  0
    5.1933   -1.5053    0.0000 C   0  0
    6.4911   -0.7530    0.0000 C   0  0
    6.4885    0.7470    0.0000 C   0  0
    5.1881    1.4948    0.0000 C   0  0
    3.8904    0.7425    0.0000 C   0  0
    3.8930   -0.7575    0.0000 C   0  0
    7.7906   -3.0055    0.0000 N   0  0
    7.7894   -1.5047    0.0000 C   0  0
    6.9228   -1.0057    0.0000 O   0  0
    9.0881   -0.7525    0.0000 C   0  0
    9.0890    0.7476    0.0000 C   0  0
   10.3886    1.4967    0.0000 C   0  0
   11.6871    0.7459    0.0000 C   0  0
   12.9866    1.4951    0.0000 O   0  0
   14.2852    0.7442    0.0000 C   0  0
   15.5847    1.4934    0.0000 O   0  0
   14.2842   -0.7558    0.0000 C   0  0
   12.9847   -1.5049    0.0000 C   0  0
   11.6862   -0.7541    0.0000 C   0  0
   10.3866   -1.5033    0.0000 C   0  0
    3.8969   -8.2640    0.0000 S   0  0
    3.8950   -6.7640    0.0000 O   0  0
    2.5970   -7.5154    0.0000 O   0  0
    3.8981   -9.7648    0.0000 C   0  0
    2.5997  -10.5158    0.0000 C   0  0
    2.6008  -12.0158    0.0000 C   0  0
    3.9005  -12.7648    0.0000 C   0  0
    3.9017  -14.2648    0.0000 N   0  0
    5.1989  -12.0138    0.0000 C   0  0
    5.1977  -10.5138    0.0000 C   0  0
  1  2  1  0
  2  3  1  0
  2  4  1  0
  4  5  1  0
  5  6  1  0
  6  7  1  0
  7  8  1  6
  7  9  1  0
  9 10  1  6
 10 11  1  0
 11 12  2  0
 12 13  1  0
 13 14  2  0
 14 15  1  0
 15 16  2  0
 16 11  1  0
  9 17  1  0
 17 18  1  0
 18 19  2  0
 18 20  1  0
 20 21  2  0
 21 22  1  0
 22 23  2  0
 23 24  1  0
 24 25  1  0
 25 26  2  0
 25 27  1  0
 27 28  2  0
 28 29  1  0
 29 23  1  0
 29 30  2  0
 30 20  1  0
  5 31  1  0
 31 32  2  0
 31 33  2  0
 31 34  1  0
 34 35  2  0
 35 36  1  0
 36 37  2  0
 37 38  1  0
 37 39  1  0
 39 40  2  0
 40 34  1  0
M  END
> <Smiles>
CC(C)CN(C[C@@H](O)[C@H](Cc1ccccc1)NC(=O)c1ccc2oc(=O)ccc2c1)S(=O)(=O)c1ccc(N)cc1

> <IC50_uM>
0.398

> <pIC50>
6.400116928

> <Activity>
1

$$$$

  SciTegic10102310092D

 29 30  0  0  0  0            999 V2000
    2.5095    1.4489    0.0000 O   0  0
    1.4489    2.5096    0.0000 C   0  0
    0.0000    2.8978    0.0000 C   0  0
   -1.4489    2.5095    0.0000 N   0  0
   -2.2055    3.8139    0.0000 C   0  0
   -3.7063    3.8119    0.0000 C   0  0
   -4.4593    5.1101    0.0000 C   0  0
   -5.9601    5.1081    0.0000 N   0  0
   -6.4136    6.5554    0.0000 C   0  0
   -7.4778    7.6125    0.0000 C   0  0
   -8.9280    7.9959    0.0000 O   0  0
   -6.4039    3.6577    0.0000 C   0  0
   -7.4610    2.5934    0.0000 C   0  0
   -8.9086    2.2003    0.0000 O   0  0
  -10.3587    2.5837    0.0000 C   0  0
  -11.4230    3.6408    0.0000 C   0  0
  -11.8160    5.0884    0.0000 O   0  0
  -11.4327    6.5386    0.0000 C   0  0
  -10.3756    7.6028    0.0000 C   0  0
   -4.4572    2.5124    0.0000 O   0  0
   -5.9572    2.5120    0.0000 C   0  0
   -2.5096    1.4489    0.0000 C   0  0
   -2.8978    0.0000    0.0000 C   0  0
   -2.5095   -1.4489    0.0000 O   0  0
   -1.4489   -2.5096    0.0000 C   0  0
    0.0000   -2.8978    0.0000 C   0  0
    1.4489   -2.5095    0.0000 O   0  0
    2.5096   -1.4489    0.0000 C   0  0
    2.8978    0.0000    0.0000 C   0  0
  1  2  1  0
  2  3  1  0
  3  4  1  0
  4  5  1  0
  5  6  1  0
  6  7  1  0
  7  8  1  0
  8  9  1  0
  9 10  1  0
 10 11  1  0
  8 12  1  0
 12 13  1  0
 13 14  1  0
 14 15  1  0
 15 16  1  0
 16 17  1  0
 17 18  1  0
 18 19  1  0
 19 11  1  0
  6 20  1  0
 20 21  1  0
  4 22  1  0
 22 23  1  0
 23 24  1  0
 24 25  1  0
 25 26  1  0
 26 27  1  0
 27 28  1  0
 28 29  1  0
 29  1  1  0
M  END
> <Smiles>
O1CCN(CC(CN(CCO2)CCOCCOCC2)OC)CCOCCOCC1

> <IC50_uM>
0.398107171

> <pIC50>
6.4

> <Activity>
1

$$$$

  SciTegic10102310092D

 21 22  0  0  0  0            999 V2000
    1.2990   -0.7500    0.0000 C   0  0
    2.5973   -1.5031    0.0000 N   0  3
    3.4642   -1.0046    0.0000 O   0  5
    2.5951   -3.0031    0.0000 O   0  0
    1.2990    0.7500    0.0000 C   0  0
    2.5988    1.5004    0.0000 S   0  0
    3.8990    0.7508    0.0000 C   0  0
    3.9000   -0.7492    0.0000 C   0  0
    5.1995   -1.4983    0.0000 C   0  0
    6.4981   -0.7475    0.0000 C   0  0
    6.4971    0.7525    0.0000 C   0  0
    5.1976    1.5017    0.0000 C   0  0
    2.5983    3.0004    0.0000 O   0  0
    1.2996    2.2502    0.0000 O   0  0
    0.0000    1.5000    0.0000 C   0  0
   -1.2990    0.7500    0.0000 C   0  0
   -1.2990   -0.7500    0.0000 C   0  0
   -2.5972   -1.5031    0.0000 C   0  0
   -3.8976   -0.7554    0.0000 O   0  0
   -2.5951   -3.0031    0.0000 O   0  0
    0.0000   -1.5000    0.0000 C   0  0
  1  2  1  0
  2  3  1  0
  2  4  2  0
  1  5  2  0
  5  6  1  0
  6  7  1  0
  7  8  2  0
  8  9  1  0
  9 10  2  0
 10 11  1  0
 11 12  2  0
 12  7  1  0
  6 13  2  0
  6 14  2  0
  5 15  1  0
 15 16  2  0
 16 17  1  0
 17 18  1  0
 18 19  1  0
 18 20  2  0
 17 21  2  0
 21  1  1  0
M  CHG  2   2   1   3  -1
M  END
> <Smiles>
c1([N+]([O-])=O)c(S(c2ccccc2)(=O)=O)ccc(C(O)=O)c1

> <IC50_uM>
0.398107171

> <pIC50>
6.4

> <Activity>
1

$$$$

  SciTegic10102310092D

 22 24  0  0  0  0            999 V2000
    3.1676   -7.5606    0.0000 C   0  0
    1.7006   -7.2475    0.0000 C   0  0
    0.6960   -8.3614    0.0000 C   0  0
   -0.7710   -8.0483    0.0000 C   0  0
   -1.7756   -9.1622    0.0000 C   0  0
   -1.2333   -6.6213    0.0000 C   0  0
   -0.2287   -5.5075    0.0000 C   0  0
   -0.6913   -4.0797    0.0000 S   0  0
   -2.1584   -3.7671    0.0000 O   0  0
   -1.6957   -5.1937    0.0000 O   0  0
    0.3114   -2.9665    0.0000 N   0  0
    1.8032   -3.1233    0.0000 C   0  0
    2.5532   -4.4223    0.0000 O   0  0
    2.4133   -1.7530    0.0000 N   0  0
    1.2990   -0.7500    0.0000 C   0  0
    1.2990    0.7500    0.0000 C   0  0
    0.0000    1.5000    0.0000 C   0  0
   -1.2990    0.7500    0.0000 C   0  0
   -2.5981    1.5000    0.0000 Cl  0  0
   -1.2990   -0.7500    0.0000 C   0  0
    0.0000   -1.5000    0.0000 C   0  0
    1.2383   -5.8206    0.0000 C   0  0
  1  2  1  0
  2  3  2  0
  3  4  1  0
  4  5  1  0
  4  6  2  0
  6  7  1  0
  7  8  1  0
  8  9  2  0
  8 10  2  0
  8 11  1  0
 11 12  1  0
 12 13  2  0
 12 14  1  0
 14 15  1  0
 15 16  2  0
 16 17  1  0
 17 18  2  0
 18 19  1  0
 18 20  1  0
 20 21  2  0
 21 15  1  0
 21 11  1  0
  7 22  2  0
 22  2  1  0
M  END
> <Smiles>
Cc1cc(C)cc(S(=O)(=O)n2c(=O)[nH]c3ccc(Cl)cc32)c1

> <IC50_uM>
0.4

> <pIC50>
6.397940009

> <Activity>
1

$$$$

  SciTegic10102310092D

 22 23  0  0  0  0            999 V2000
    2.5981   -1.5000    0.0000 C   0  0
    1.2990   -0.7500    0.0000 C   0  0
    1.2990    0.7500    0.0000 C   0  0
    2.5972    1.5031    0.0000 C   0  0  3  0  0  0
    3.8976    0.7554    0.0000 C   0  0
    2.5951    3.0039    0.0000 C   0  0
    3.8915    3.7585    0.0000 C   0  0
    5.1932    3.0131    0.0000 F   0  0
    3.8863    5.2585    0.0000 C   0  0
    2.5847    6.0040    0.0000 C   0  0
    1.2883    5.2495    0.0000 C   0  0
    1.2934    3.7495    0.0000 C   0  0
   -0.0030    2.9951    0.0000 F   0  0
    0.0000    1.5000    0.0000 N   0  0
   -1.2990    0.7500    0.0000 C   0  0
   -2.6003    1.4977    0.0000 N   0  0
   -3.8990    0.7455    0.0000 C   0  0
   -5.1996    1.4928    0.0000 C   0  0
   -3.8964   -0.7545    0.0000 C   0  0
   -1.2990   -0.7500    0.0000 N   0  0
    0.0000   -1.5000    0.0000 C   0  0
    0.0000   -3.0000    0.0000 O   0  0
  1  2  1  0
  2  3  2  0
  3  4  1  0
  4  5  1  4
  4  6  1  0
  6  7  2  0
  7  8  1  0
  7  9  1  0
  9 10  2  0
 10 11  1  0
 11 12  2  0
 12  6  1  0
 12 13  1  0
  3 14  1  0
 14 15  2  0
 15 16  1  0
 16 17  1  0
 17 18  1  0
 17 19  1  0
 15 20  1  0
 20 21  1  0
 21  2  1  0
 21 22  2  0
M  END
> <Smiles>
Cc1c(C(C)c2c(F)cccc2F)nc(NC(C)C)[nH]c1=O

> <IC50_uM>
0.4

> <pIC50>
6.397940009

> <Activity>
1

$$$$

  SciTegic10102310092D

 18 20  0  0  1  0            999 V2000
   -5.2649   -4.1084    0.0000 C   0  0
   -4.3533   -5.2996    0.0000 O   0  0
   -2.8675   -5.1069    0.0000 C   0  0  2  0  0  0
   -1.8348   -6.1949    0.0000 C   0  0
   -0.4810   -5.5489    0.0000 C   0  0
    0.8417   -6.2564    0.0000 F   0  0
   -0.6928   -4.0817    0.0000 C   0  0  2  0  0  0
    0.3114   -2.9665    0.0000 N   0  0
    1.8032   -3.1233    0.0000 C   0  0
    2.4133   -1.7530    0.0000 N   0  0
    1.2990   -0.7500    0.0000 C   0  0
    1.2990    0.7500    0.0000 C   0  0
    2.5981    1.5000    0.0000 N   0  0
    0.0000    1.5000    0.0000 N   0  0
   -1.2990    0.7500    0.0000 C   0  0
   -1.2990   -0.7500    0.0000 N   0  0
    0.0000   -1.5000    0.0000 C   0  0
   -2.1519   -3.7886    0.0000 O   0  0
  1  2  1  0
  3  2  1  1
  3  4  1  0
  4  5  2  0
  5  6  1  0
  5  7  1  0
  7  8  1  1
  8  9  1  0
  9 10  2  0
 10 11  1  0
 11 12  2  0
 12 13  1  0
 12 14  1  0
 14 15  2  0
 15 16  1  0
 16 17  2  0
 17 11  1  0
 17  8  1  0
  7 18  1  0
 18  3  1  0
M  END
> <Smiles>
CO[C@@H]1C=C(F)[C@H](n2cnc3c(N)ncnc32)O1

> <IC50_uM>
0.4

> <pIC50>
6.397940009

> <Activity>
1

$$$$

  SciTegic10102310092D

 31 34  0  0  0  0            999 V2000
    8.5414   -9.6390    0.0000 C   0  0
    7.0414   -9.6343    0.0000 C   0  0
    6.2954   -8.3329    0.0000 C   0  0
    4.7954   -8.3283    0.0000 C   0  0
    4.0413   -9.6250    0.0000 C   0  0
    2.5405   -9.6223    0.0000 N   0  0
    1.7882  -10.9210    0.0000 C   0  0
    0.2882  -10.9183    0.0000 O   0  0
    2.5359  -12.2223    0.0000 C   0  0
    1.9149  -13.5737    0.0000 C   0  0
    3.0296  -14.5774    0.0000 C   0  0
    4.3286  -13.8274    0.0000 C   0  0
    4.0168  -12.3602    0.0000 S   0  0
    1.7928   -8.3210    0.0000 C   0  0
    0.2928   -8.3184    0.0000 S   0  0
    2.5451   -7.0223    0.0000 O   0  0
    1.7974   -5.7210    0.0000 C   0  0
    2.5497   -4.4224    0.0000 C   0  0
    1.8032   -3.1233    0.0000 N   0  0
    2.4133   -1.7530    0.0000 C   0  0
    3.8805   -1.4410    0.0000 O   0  0
    1.2990   -0.7500    0.0000 C   0  0
    1.2990    0.7500    0.0000 C   0  0
    0.0000    1.5000    0.0000 C   0  0
   -1.2990    0.7500    0.0000 C   0  0
   -1.2990   -0.7500    0.0000 C   0  0
    0.0000   -1.5000    0.0000 C   0  0
    0.3114   -2.9665    0.0000 C   0  0
   -0.6923   -4.0811    0.0000 O   0  0
    4.7873  -10.9263    0.0000 C   0  0
    6.2873  -10.9310    0.0000 C   0  0
  1  2  1  0
  2  3  2  0
  3  4  1  0
  4  5  2  0
  5  6  1  0
  6  7  1  0
  7  8  2  0
  7  9  1  0
  9 10  2  0
 10 11  1  0
 11 12  2  0
 12 13  1  0
 13  9  1  0
  6 14  1  0
 14 15  2  0
 14 16  1  0
 16 17  1  0
 17 18  1  0
 18 19  1  0
 19 20  1  0
 20 21  2  0
 20 22  1  0
 22 23  2  0
 23 24  1  0
 24 25  2  0
 25 26  1  0
 26 27  2  0
 27 22  1  0
 27 28  1  0
 28 19  1  0
 28 29  2  0
  5 30  1  0
 30 31  2  0
 31  2  1  0
M  END
> <Smiles>
Cc1ccc(N(C(=O)c2cccs2)C(=S)OCCN2C(=O)c3ccccc3C2=O)cc1

> <IC50_uM>
0.4

> <pIC50>
6.397940009

> <Activity>
1

$$$$

  SciTegic10102310092D

 31 34  0  0  0  0            999 V2000
    3.8805   -1.4410    0.0000 O   0  0
    2.4133   -1.7530    0.0000 C   0  0
    1.2990   -0.7500    0.0000 C   0  0
    1.2990    0.7500    0.0000 C   0  0
    0.0000    1.5000    0.0000 C   0  0
   -1.2990    0.7500    0.0000 C   0  0
   -1.2990   -0.7500    0.0000 C   0  0
    0.0000   -1.5000    0.0000 C   0  0
    0.3114   -2.9665    0.0000 C   0  0
   -0.6923   -4.0811    0.0000 O   0  0
    1.8032   -3.1233    0.0000 N   0  0
    2.5551   -4.4192    0.0000 C   0  0
    4.0559   -4.4171    0.0000 C   0  0
    4.8090   -5.7153    0.0000 O   0  0
    6.3098   -5.7131    0.0000 C   0  0
    7.0575   -4.4128    0.0000 S   0  0
    7.0629   -7.0113    0.0000 N   0  0
    8.5637   -7.0091    0.0000 C   0  0
    9.3115   -5.7088    0.0000 O   0  0
    9.3168   -8.3073    0.0000 C   0  0
   10.8169   -8.3074    0.0000 C   0  0
   11.5669   -9.6064    0.0000 C   0  0
   10.8170  -10.9054    0.0000 C   0  0
    9.3170  -10.9055    0.0000 C   0  0
    8.5669   -9.6065    0.0000 C   0  0
    6.3148   -8.3123    0.0000 C   0  0
    7.0653   -9.6112    0.0000 C   0  0
    6.3158  -10.9105    0.0000 C   0  0
    4.8158  -10.9111    0.0000 C   0  0
    4.0653   -9.6124    0.0000 C   0  0
    4.8148   -8.3130    0.0000 C   0  0
  1  2  2  0
  2  3  1  0
  3  4  2  0
  4  5  1  0
  5  6  2  0
  6  7  1  0
  7  8  2  0
  8  3  1  0
  8  9  1  0
  9 10  2  0
  9 11  1  0
 11  2  1  0
 11 12  1  0
 12 13  1  0
 13 14  1  0
 14 15  1  0
 15 16  2  0
 15 17  1  0
 17 18  1  0
 18 19  2  0
 18 20  1  0
 20 21  2  0
 21 22  1  0
 22 23  2  0
 23 24  1  0
 24 25  2  0
 25 20  1  0
 17 26  1  0
 26 27  2  0
 27 28  1  0
 28 29  2  0
 29 30  1  0
 30 31  2  0
 31 26  1  0
M  END
> <Smiles>
O=C1c2ccccc2C(=O)N1CCOC(=S)N(C(=O)c1ccccc1)c1ccccc1

> <IC50_uM>
0.4

> <pIC50>
6.397940009

> <Activity>
1

$$$$

  SciTegic10102310092D

 30 33  0  0  0  0            999 V2000
    6.4451   -1.8434    0.0000 C   0  0
    4.9531   -1.9978    0.0000 C   0  0
    3.9511   -0.8815    0.0000 C   0  0
    2.5987   -1.5004    0.0000 N   0  0
    1.2990   -0.7500    0.0000 C   0  0
    1.2990    0.7500    0.0000 C   0  0
    0.0000    1.5000    0.0000 C   0  0
   -1.2990    0.7500    0.0000 C   0  0
   -2.7248    1.2135    0.0000 C   0  0
   -3.1882    2.6401    0.0000 C   0  0
   -3.6065    0.0000    0.0000 N   0  0
   -2.7248   -1.2135    0.0000 C   0  0
   -3.1904   -2.6376    0.0000 C   0  0
   -4.6588   -2.9478    0.0000 C   0  0
   -5.1253   -4.3743    0.0000 C   0  0
   -6.5937   -4.6845    0.0000 C   0  0
   -7.0602   -6.1110    0.0000 C   0  0
   -8.5286   -6.4213    0.0000 C   0  0
   -8.9950   -7.8478    0.0000 C   0  0
   -7.9930   -8.9640    0.0000 O   0  0
  -10.4634   -8.1580    0.0000 C   0  0
  -10.9317   -9.5831    0.0000 C   0  0
  -12.3999   -9.8901    0.0000 C   0  0
  -13.4000   -8.7721    0.0000 C   0  0
  -12.9318   -7.3471    0.0000 C   0  0
  -11.4636   -7.0400    0.0000 C   0  0
   -1.2990   -0.7500    0.0000 N   0  0
    0.0000   -1.5000    0.0000 N   0  0
    2.7343   -2.9815    0.0000 C   0  0
    4.2010   -3.2956    0.0000 N   0  0
  1  2  1  0
  2  3  2  0
  3  4  1  0
  4  5  1  0
  5  6  1  0
  6  7  2  0
  7  8  1  0
  8  9  2  0
  9 10  1  0
  9 11  1  0
 11 12  2  0
 12 13  1  0
 13 14  1  0
 14 15  1  0
 15 16  1  0
 16 17  1  0
 17 18  1  0
 18 19  1  0
 19 20  2  0
 19 21  1  0
 21 22  2  0
 22 23  1  0
 23 24  2  0
 24 25  1  0
 25 26  2  0
 26 21  1  0
 12 27  1  0
 27  8  1  0
 27 28  1  0
 28  5  2  0
  4 29  1  0
 29 30  2  0
 30  2  1  0
M  END
> <Smiles>
Cc1cn(-c2ccc3c(C)nc(CCCCCCC(=O)c4ccccc4)n3n2)cn1

> <IC50_uM>
0.4

> <pIC50>
6.397940009

> <Activity>
1

$$$$

  SciTegic10102310092D

  7  8  0  0  0  0            999 V2000
   -2.4451   -0.7641    0.0000 C   0  0  3  0  0  0
   -3.2310    0.3930    0.0000 O   0  0
   -3.2310   -1.9430    0.0000 C   0  0  3  0  0  0
   -4.5628   -2.3141    0.0000 O   0  0
   -3.8642   -1.1134    0.0000 C   0  0
   -1.8993   -2.3141    0.0000 O   0  0
   -1.2226   -1.1134    0.0000 C   0  0
  1  2  1  4
  3  2  1  4
  3  4  1  0
  4  5  1  0
  5  1  1  0
  3  6  1  0
  6  7  1  0
  7  1  1  0
M  END
> <Smiles>
C12OC(OC1)OC2

> <IC50_uM>
0.407380278

> <pIC50>
6.39

> <Activity>
1

$$$$

  SciTegic10102310092D

 27 30  0  0  0  0            999 V2000
    2.5981   -1.5000    0.0000 O   0  0
    1.2990   -0.7500    0.0000 C   0  0
    1.2990    0.7500    0.0000 N   0  0
    0.0000    1.5000    0.0000 C   0  0
    0.0000    3.0000    0.0000 C   0  0
   -1.2991    3.7500    0.0000 C   0  0
   -2.5981    3.0000    0.0000 C   0  0
   -3.8994    3.7477    0.0000 N   0  0
   -5.1981    2.9954    0.0000 S   0  0
   -5.1955    1.4955    0.0000 O   0  0
   -3.8979    2.2475    0.0000 O   0  0
   -6.4994    3.7432    0.0000 C   0  0
   -7.7969    2.9905    0.0000 C   0  0
   -9.0975    3.7378    0.0000 C   0  0
   -9.1005    5.2378    0.0000 C   0  0
  -10.4011    5.9851    0.0000 C   0  0
  -10.4042    7.4851    0.0000 C   0  0
   -9.1067    8.2378    0.0000 C   0  0
   -7.8062    7.4905    0.0000 C   0  0
   -7.8031    5.9905    0.0000 C   0  0
   -6.5025    5.2432    0.0000 C   0  0
   -2.5981    1.5000    0.0000 C   0  0
   -1.2990    0.7500    0.0000 C   0  0
   -1.2990   -0.7500    0.0000 C   0  0
   -2.5981   -1.5000    0.0000 O   0  0
    0.0000   -1.5000    0.0000 N   0  0
    0.0000   -3.0000    0.0000 O   0  0
  1  2  2  0
  2  3  1  0
  3  4  1  0
  4  5  2  0
  5  6  1  0
  6  7  2  0
  7  8  1  0
  8  9  1  0
  9 10  2  0
  9 11  2  0
  9 12  1  0
 12 13  2  0
 13 14  1  0
 14 15  2  0
 15 16  1  0
 16 17  2  0
 17 18  1  0
 18 19  2  0
 19 20  1  0
 20 15  1  0
 20 21  2  0
 21 12  1  0
  7 22  1  0
 22 23  2  0
 23  4  1  0
 23 24  1  0
 24 25  2  0
 24 26  1  0
 26  2  1  0
 26 27  1  0
M  END
> <Smiles>
O=c1[nH]c2ccc(NS(=O)(=O)c3ccc4ccccc4c3)cc2c(=O)n1O

> <IC50_uM>
0.41

> <pIC50>
6.387216143

> <Activity>
1

$$$$

  SciTegic10102310092D

 26 28  0  0  0  0            999 V2000
    5.1655    6.0115    0.0000 C   0  0
    3.8704    5.2547    0.0000 C   0  0
    2.5677    5.9984    0.0000 O   0  0
    3.8787    3.7539    0.0000 C   0  0
    5.1821    3.0099    0.0000 S   0  0
    5.1903    1.5091    0.0000 C   0  0
    6.4920    0.7636    0.0000 N   0  0
    6.4972   -0.7364    0.0000 C   0  0
    7.7988   -1.4819    0.0000 O   0  0
    5.2007   -1.4909    0.0000 C   0  0
    5.2029   -2.9917    0.0000 C   0  0
    3.9054   -3.7444    0.0000 C   0  0
    6.5032   -3.7395    0.0000 C   0  0
    3.8990   -0.7455    0.0000 C   0  0
    2.6003   -1.4977    0.0000 C   0  0
    1.2990   -0.7500    0.0000 C   0  0
    1.2990    0.7500    0.0000 C   0  0
    0.0000    1.5000    0.0000 C   0  0
   -1.2990    0.7500    0.0000 C   0  0
   -1.2990   -0.7500    0.0000 C   0  0
   -2.5981   -1.5000    0.0000 C   0  0
   -2.5981   -3.0000    0.0000 C   0  0
   -1.2990   -3.7500    0.0000 C   0  0
    0.0000   -3.0000    0.0000 C   0  0
    0.0000   -1.5000    0.0000 C   0  0
    3.8939    0.7546    0.0000 N   0  0
  1  2  1  0
  2  3  2  0
  2  4  1  0
  4  5  1  0
  5  6  1  0
  6  7  2  0
  7  8  1  0
  8  9  1  0
  8 10  2  0
 10 11  1  0
 11 12  1  0
 11 13  1  0
 10 14  1  0
 14 15  1  0
 15 16  1  0
 16 17  2  0
 17 18  1  0
 18 19  2  0
 19 20  1  0
 20 21  2  0
 21 22  1  0
 22 23  2  0
 23 24  1  0
 24 25  2  0
 25 16  1  0
 25 20  1  0
 14 26  2  0
 26  6  1  0
M  END
> <Smiles>
CC(=O)CSc1nc(O)c(C(C)C)c(Cc2cccc3ccccc23)n1

> <IC50_uM>
0.41

> <pIC50>
6.387216143

> <Activity>
1

$$$$

  SciTegic10102310092D

 43 46  0  0  1  0            999 V2000
  -16.8657   -0.8225    0.0000 C   0  0
  -15.5599   -1.5607    0.0000 O   0  0
  -14.2665   -0.7994    0.0000 C   0  0
  -14.2760    0.7006    0.0000 C   0  0
  -12.9818    1.4588    0.0000 C   0  0
  -11.6780    0.7171    0.0000 C   0  0
  -10.3837    1.4753    0.0000 C   0  0
  -10.3902    2.9761    0.0000 C   0  0
   -9.0941    3.7329    0.0000 C   0  0
   -8.2258    3.2369    0.0000 O   0  0
   -9.1005    5.2337    0.0000 N   0  0
   -7.8045    5.9905    0.0000 C   0  0  1  0  0  0
   -6.5028    5.2434    0.0000 C   0  0
   -6.4981    3.7426    0.0000 C   0  0
   -7.7932    2.9857    0.0000 C   0  0
   -7.7854    1.4857    0.0000 C   0  0
   -6.4824    0.7425    0.0000 C   0  0
   -5.1873    1.4993    0.0000 C   0  0
   -5.1951    2.9992    0.0000 C   0  0
   -7.8109    7.4913    0.0000 C   0  0  2  0  0  0
   -8.6792    7.9873    0.0000 O   0  0
   -6.5149    8.2481    0.0000 C   0  0
   -6.5213    9.7489    0.0000 N   0  0
   -7.8260   10.4907    0.0000 C   0  0
   -9.1212    9.7324    0.0000 C   0  0
  -10.4252   10.4738    0.0000 C   0  0
   -9.1149    8.7325    0.0000 C   0  0
   -5.2253   10.5057    0.0000 S   0  0
   -3.9228    9.7617    0.0000 O   0  0
   -5.2181    9.0057    0.0000 O   0  0
   -5.2317   12.0065    0.0000 C   0  0
   -3.9359   12.7621    0.0000 C   0  0
   -3.9423   14.2621    0.0000 C   0  0
   -5.2445   15.0065    0.0000 C   0  0
   -5.2509   16.5065    0.0000 N   0  0
   -6.5403   14.2509    0.0000 C   0  0
   -6.5339   12.7509    0.0000 C   0  0
   -9.0800    0.7335    0.0000 C   0  0
   -9.0705   -0.7664    0.0000 C   0  0
   -7.7667   -1.5082    0.0000 O   0  0
  -10.3647   -1.5247    0.0000 O   0  0
  -11.6685   -0.7829    0.0000 C   0  0
  -12.9628   -1.5411    0.0000 C   0  0
  1  2  1  0
  2  3  1  0
  3  4  2  0
  4  5  1  0
  5  6  2  0
  6  7  1  0
  7  8  1  0
  8  9  1  0
  9 10  2  0
  9 11  1  0
 12 11  1  6
 12 13  1  0
 13 14  1  0
 14 15  2  0
 15 16  1  0
 16 17  2  0
 17 18  1  0
 18 19  2  0
 19 14  1  0
 12 20  1  0
 20 21  1  6
 20 22  1  0
 22 23  1  0
 23 24  1  0
 24 25  1  0
 25 26  1  0
 25 27  1  0
 23 28  1  0
 28 29  2  0
 28 30  2  0
 28 31  1  0
 31 32  2  0
 32 33  1  0
 33 34  2  0
 34 35  1  0
 34 36  1  0
 36 37  2  0
 37 31  1  0
  7 38  2  0
 38 39  1  0
 39 40  2  0
 39 41  1  0
 41 42  1  0
 42  6  1  0
 42 43  2  0
 43  3  1  0
M  END
> <Smiles>
COc1ccc2c(CC(=O)N[C@@H](Cc3ccccc3)[C@H](O)CN(CC(C)C)S(=O)(=O)c3ccc(N)cc3)cc(=O)oc2c1

> <IC50_uM>
0.4106

> <pIC50>
6.386581055

> <Activity>
1

$$$$

  SciTegic10102310092D

 38 40  0  0  0  0            999 V2000
    7.7919    1.5103    0.0000 C   0  0
    9.0933    0.7644    0.0000 C   0  0
    9.0990   -0.7364    0.0000 N   0  0
    7.8003   -1.4887    0.0000 C   0  0
    7.8029   -2.9887    0.0000 O   0  0
    6.4990   -0.7409    0.0000 N   0  0
    5.2003   -1.4932    0.0000 C   0  0
    3.8990   -0.7455    0.0000 C   0  0
    3.8964    0.7545    0.0000 O   0  0
    2.6003   -1.4977    0.0000 N   0  0
    1.2990   -0.7500    0.0000 C   0  0
    1.2990    0.7500    0.0000 C   0  0
    0.0000    1.5000    0.0000 C   0  0
   -1.2990    0.7500    0.0000 C   0  0
   -2.5987    1.5004    0.0000 C   0  0
   -2.6012    3.0004    0.0000 C   0  0
   -3.9015    3.7484    0.0000 C   0  0
   -5.1993    2.9963    0.0000 C   0  0
   -6.5018    3.7420    0.0000 C   0  0
   -7.7993    2.9876    0.0000 C   0  0
   -9.1010    3.7329    0.0000 O   0  0
   -7.7943    1.4876    0.0000 O   0  0
   -5.1969    1.4963    0.0000 C   0  0
   -3.8967    0.7484    0.0000 C   0  0
   -1.2990   -0.7500    0.0000 C   0  0
    0.0000   -1.5000    0.0000 C   0  0
    0.0000   -3.0000    0.0000 Cl  0  0
   10.4003   -1.4841    0.0000 C   0  0
   10.4004   -2.9842    0.0000 C   0  0
   11.6994   -3.7342    0.0000 C   0  0
   12.9985   -2.9841    0.0000 C   0  0
   14.2982   -3.7345    0.0000 C   0  0
   14.2992   -5.2345    0.0000 C   0  0
   15.5970   -2.9841    0.0000 C   0  0
   15.5977   -4.4839    0.0000 C   0  0
   12.9984   -1.4841    0.0000 C   0  0
   11.6994   -0.7342    0.0000 C   0  0
   11.6994    0.7658    0.0000 Cl  0  0
  1  2  1  0
  2  3  1  0
  3  4  1  0
  4  5  2  0
  4  6  1  0
  6  7  1  0
  7  8  1  0
  8  9  2  0
  8 10  1  0
 10 11  1  0
 11 12  2  0
 12 13  1  0
 13 14  2  0
 14 15  1  0
 15 16  2  0
 16 17  1  0
 17 18  2  0
 18 19  1  0
 19 20  1  0
 20 21  2  0
 20 22  1  0
 18 23  1  0
 23 24  2  0
 24 15  1  0
 14 25  1  0
 25 26  2  0
 26 11  1  0
 26 27  1  0
  3 28  1  0
 28 29  2  0
 29 30  1  0
 30 31  2  0
 31 32  1  0
 32 33  1  0
 32 34  1  0
 32 35  1  0
 31 36  1  0
 36 37  2  0
 37 28  1  0
 37 38  1  0
M  END
> <Smiles>
CCN(C(=O)NCC(=O)Nc1ccc(-c2ccc(CC(=O)O)cc2)cc1Cl)c1ccc(C(C)(C)C)cc1Cl

> <IC50_uM>
0.414

> <pIC50>
6.382999659

> <Activity>
1

$$$$

  SciTegic10102310092D

  7  6  0  0  0  0            999 V2000
    3.9000    0.7500    0.0000 C   0  0
    2.6000    0.0000    0.0000 O   0  0
    1.3000    0.7500    0.0000 C   0  0
    0.0007    0.0004    0.0000 C   0  0
    5.2000    0.0000    0.0000 N   0  0
    6.5000    0.7500    0.0000 C   0  0
    7.7992    0.0004    0.0000 O   0  0
  1  2  1  0
  2  3  1  0
  3  4  1  0
  1  5  1  0
  5  6  1  0
  6  7  2  0
M  END
> <Smiles>
C(OCC)NC=O

> <IC50_uM>
0.416869383

> <pIC50>
6.38

> <Activity>
1

$$$$

  SciTegic10102310092D

 36 39  0  0  1  0            999 V2000
    3.1676   -7.5606    0.0000 C   0  0
    1.7006   -7.2475    0.0000 C   0  0
    0.6960   -8.3614    0.0000 C   0  0
   -0.7710   -8.0483    0.0000 C   0  0
   -1.7756   -9.1622    0.0000 C   0  0
   -1.2333   -6.6213    0.0000 C   0  0
   -0.2287   -5.5075    0.0000 C   0  0
   -0.6913   -4.0797    0.0000 S   0  0
   -2.1584   -3.7671    0.0000 O   0  0
   -1.6957   -5.1937    0.0000 O   0  0
    0.3114   -2.9665    0.0000 C   0  0
    1.8032   -3.1233    0.0000 C   0  0
    2.5551   -4.4192    0.0000 C   0  0
    1.8074   -5.7196    0.0000 O   0  0
    4.0559   -4.4171    0.0000 N   0  0
    4.8090   -5.7153    0.0000 C   0  0  1  0  0  0
    4.0613   -7.0156    0.0000 C   0  0
    6.3098   -5.7131    0.0000 C   0  0
    7.0575   -4.4127    0.0000 O   0  0
    7.0629   -7.0113    0.0000 N   0  0
    8.5638   -7.0091    0.0000 C   0  0
    9.3169   -8.3073    0.0000 C   0  0
   10.8169   -8.3073    0.0000 C   0  0
   11.5670   -9.6063    0.0000 C   0  0
   10.8170  -10.9054    0.0000 N   0  0
    9.3170  -10.9055    0.0000 C   0  0
    8.5670   -9.6065    0.0000 C   0  0
    2.4133   -1.7530    0.0000 N   0  0
    1.2990   -0.7500    0.0000 C   0  0
    1.2990    0.7500    0.0000 C   0  0
    0.0000    1.5000    0.0000 C   0  0
   -1.2990    0.7500    0.0000 C   0  0
   -2.5981    1.5000    0.0000 Cl  0  0
   -1.2990   -0.7500    0.0000 C   0  0
    0.0000   -1.5000    0.0000 C   0  0
    1.2383   -5.8206    0.0000 C   0  0
  1  2  1  0
  2  3  2  0
  3  4  1  0
  4  5  1  0
  4  6  2  0
  6  7  1  0
  7  8  1  0
  8  9  2  0
  8 10  2  0
  8 11  1  0
 11 12  2  0
 12 13  1  0
 13 14  2  0
 13 15  1  0
 15 16  1  0
 16 17  1  6
 16 18  1  0
 18 19  2  0
 18 20  1  0
 20 21  1  0
 21 22  1  0
 22 23  2  0
 23 24  1  0
 24 25  2  0
 25 26  1  0
 26 27  2  0
 27 22  1  0
 12 28  1  0
 28 29  1  0
 29 30  2  0
 30 31  1  0
 31 32  2  0
 32 33  1  0
 32 34  1  0
 34 35  2  0
 35 11  1  0
 35 29  1  0
  7 36  2  0
 36  2  1  0
M  END
> <Smiles>
Cc1cc(C)cc(S(=O)(=O)c2c(C(=O)N[C@@H](C)C(=O)NCc3ccncc3)[nH]c3ccc(Cl)cc23)c1

> <IC50_uM>
0.417

> <pIC50>
6.379863945

> <Activity>
1

$$$$

  SciTegic10102310092D

 35 38  0  0  0  0            999 V2000
    2.5981   -1.5000    0.0000 C   0  0
    1.2990   -0.7500    0.0000 C   0  0
    1.2990    0.7500    0.0000 C   0  0
    0.0000    1.5000    0.0000 C   0  0
   -1.2990    0.7500    0.0000 C   0  0
   -2.5987    1.5004    0.0000 N   0  0
   -3.9492    0.8772    0.0000 N   0  0
   -4.9546    1.9903    0.0000 C   0  0
   -4.2067    3.2905    0.0000 C   0  0
   -2.7390    2.9810    0.0000 C   0  0
   -1.6216    3.9790    0.0000 S   0  0
   -1.9268    5.4485    0.0000 C   0  0
   -0.8074    6.4482    0.0000 C   0  0
    0.6172    5.9785    0.0000 O   0  0
   -1.1126    7.9177    0.0000 N   0  0
    0.0068    8.9174    0.0000 C   0  0
    1.4306    8.4453    0.0000 C   0  0
    2.5514    9.4422    0.0000 C   0  0
    2.2485   10.9113    0.0000 C   0  0
    3.3698   11.9087    0.0000 C   0  0
    4.7944   11.4389    0.0000 C   0  0
    5.9136   12.4375    0.0000 C   0  0
    5.6083   13.9061    0.0000 C   0  0
    6.7261   14.9077    0.0000 C   0  0
    6.4186   16.3767    0.0000 C   0  0
    7.5357   17.3777    0.0000 O   0  0
    4.9933   16.8441    0.0000 O   0  0
    4.1839   14.3761    0.0000 C   0  0
    3.0646   13.3774    0.0000 C   0  0
    0.8247   11.3835    0.0000 C   0  0
   -0.2961   10.3866    0.0000 C   0  0
   -1.7198   10.8588    0.0000 Cl  0  0
   -1.2990   -0.7500    0.0000 C   0  0
   -2.5981   -1.5000    0.0000 Cl  0  0
    0.0000   -1.5000    0.0000 C   0  0
  1  2  1  0
  2  3  2  0
  3  4  1  0
  4  5  2  0
  5  6  1  0
  6  7  1  0
  7  8  2  0
  8  9  1  0
  9 10  2  0
 10  6  1  0
 10 11  1  0
 11 12  1  0
 12 13  1  0
 13 14  2  0
 13 15  1  0
 15 16  1  0
 16 17  2  0
 17 18  1  0
 18 19  2  0
 19 20  1  0
 20 21  2  0
 21 22  1  0
 22 23  2  0
 23 24  1  0
 24 25  1  0
 25 26  2  0
 25 27  1  0
 23 28  1  0
 28 29  2  0
 29 20  1  0
 19 30  1  0
 30 31  2  0
 31 16  1  0
 31 32  1  0
  5 33  1  0
 33 34  1  0
 33 35  2  0
 35  2  1  0
M  END
> <Smiles>
Cc1ccc(-n2nccc2SCC(=O)Nc2ccc(-c3ccc(CC(=O)O)cc3)cc2Cl)c(Cl)c1

> <IC50_uM>
0.42

> <pIC50>
6.37675071

> <Activity>
1

$$$$

  SciTegic10102310092D

 27 29  0  0  0  0            999 V2000
    3.8912   -5.2570    0.0000 C   0  0
    3.8933   -3.7570    0.0000 C   0  0
    2.5951   -3.0039    0.0000 O   0  0
    2.5973   -1.5031    0.0000 C   0  0
    1.2990   -0.7500    0.0000 N   0  0
    1.2990    0.7500    0.0000 C   0  0
    2.5972    1.5031    0.0000 C   0  0
    3.8976    0.7554    0.0000 O   0  0
    2.5951    3.0039    0.0000 C   0  0
    3.8915    3.7585    0.0000 C   0  0
    3.8863    5.2585    0.0000 C   0  0
    2.5847    6.0040    0.0000 C   0  0
    2.5795    7.5047    0.0000 C   0  0
    3.8747    8.2614    0.0000 C   0  0
    3.8671    9.7614    0.0000 C   0  0
    2.5643   10.5048    0.0000 C   0  0
    1.2691    9.7483    0.0000 C   0  0
    1.2767    8.2483    0.0000 C   0  0
    1.2883    5.2495    0.0000 C   0  0
    1.2934    3.7495    0.0000 C   0  0
    0.0000    1.5000    0.0000 C   0  0
   -1.2990    0.7500    0.0000 C   0  0
   -2.5981    1.5000    0.0000 O   0  0
   -1.2990   -0.7500    0.0000 N   0  0
   -2.5981   -1.5000    0.0000 O   0  0
    0.0000   -1.5000    0.0000 C   0  0
    0.0000   -3.0000    0.0000 O   0  0
  1  2  1  0
  2  3  1  0
  3  4  1  0
  4  5  1  0
  5  6  1  0
  6  7  1  0
  7  8  2  0
  7  9  1  0
  9 10  2  0
 10 11  1  0
 11 12  2  0
 12 13  1  0
 13 14  2  0
 14 15  1  0
 15 16  2  0
 16 17  1  0
 17 18  2  0
 18 13  1  0
 12 19  1  0
 19 20  2  0
 20  9  1  0
  6 21  2  0
 21 22  1  0
 22 23  2  0
 22 24  1  0
 24 25  1  0
 24 26  1  0
 26  5  1  0
 26 27  2  0
M  END
> <Smiles>
CCOCn1c(C(=O)c2ccc(-c3ccccc3)cc2)cc(=O)n(O)c1=O

> <IC50_uM>
0.42

> <pIC50>
6.37675071

> <Activity>
1

$$$$

  SciTegic10102310092D

 42 45  0  0  1  0            999 V2000
   14.3120    5.2512    0.0000 C   0  0
   14.3068    3.7513    0.0000 O   0  0
   13.0049    3.0045    0.0000 C   0  0
   11.7064    3.7556    0.0000 C   0  0
   10.4068    3.0066    0.0000 C   0  0
   10.4056    1.5066    0.0000 C   0  0
    9.1053    0.7572    0.0000 S   0  0
    7.8071    1.5086    0.0000 O   0  0
    7.8053    0.0088    0.0000 O   0  0
    9.1031   -0.7436    0.0000 N   0  0
   10.4005   -1.4981    0.0000 C   0  0
   10.3967   -2.9990    0.0000 C   0  0
   11.6934   -3.7531    0.0000 C   0  0
    9.5293   -3.4965    0.0000 C   0  0
    7.8028   -1.4930    0.0000 C   0  0
    7.8007   -2.9938    0.0000 C   0  0  1  0  0  0
    8.6661   -3.4948    0.0000 O   0  0
    6.5003   -3.7432    0.0000 C   0  0  2  0  0  0
    5.1998   -2.9940    0.0000 C   0  0
    3.9003   -3.7449    0.0000 C   0  0
    3.8977   -5.2449    0.0000 C   0  0
    2.5973   -5.9927    0.0000 C   0  0
    1.2996   -5.2404    0.0000 C   0  0
    1.3022   -3.7404    0.0000 C   0  0
    2.6025   -2.9927    0.0000 C   0  0
    6.4982   -5.2440    0.0000 N   0  0
    5.1978   -5.9934    0.0000 C   0  0
    4.3324   -5.4925    0.0000 O   0  0
    5.1957   -7.4943    0.0000 C   0  0
    6.4952   -8.2434    0.0000 C   0  0
    6.4962   -9.7434    0.0000 C   0  0
    7.7957  -10.4926    0.0000 C   0  0
    7.7966  -11.9926    0.0000 C   0  0
    6.4981  -12.7434    0.0000 C   0  0
    6.4990  -14.2434    0.0000 O   0  0
    5.1986  -11.9943    0.0000 C   0  0
    5.1976  -10.4943    0.0000 C   0  0
    3.8981   -9.7451    0.0000 O   0  0
    3.8972   -8.2451    0.0000 C   0  0
    2.5976   -7.4959    0.0000 O   0  0
   11.7041    0.7556    0.0000 C   0  0
   13.0037    1.5045    0.0000 C   0  0
  1  2  1  0
  2  3  1  0
  3  4  2  0
  4  5  1  0
  5  6  2  0
  6  7  1  0
  7  8  2  0
  7  9  2  0
  7 10  1  0
 10 11  1  0
 11 12  1  0
 12 13  1  0
 12 14  1  0
 10 15  1  0
 15 16  1  0
 16 17  1  1
 16 18  1  0
 18 19  1  1
 19 20  1  0
 20 21  2  0
 21 22  1  0
 22 23  2  0
 23 24  1  0
 24 25  2  0
 25 20  1  0
 18 26  1  0
 26 27  1  0
 27 28  2  0
 27 29  1  0
 29 30  2  0
 30 31  1  0
 31 32  2  0
 32 33  1  0
 33 34  2  0
 34 35  1  0
 34 36  1  0
 36 37  2  0
 37 31  1  0
 37 38  1  0
 38 39  1  0
 39 29  1  0
 39 40  2  0
  6 41  1  0
 41 42  2  0
 42  3  1  0
M  END
> <Smiles>
COc1ccc(S(=O)(=O)N(CC(C)C)C[C@@H](O)[C@H](Cc2ccccc2)NC(=O)c2cc3ccc(O)cc3oc2=O)cc1

> <IC50_uM>
0.4207

> <pIC50>
6.376027488

> <Activity>
1

$$$$

  SciTegic10102310092D

 34 37  0  0  0  0            999 V2000
    3.1676   -7.5606    0.0000 C   0  0
    1.7006   -7.2475    0.0000 C   0  0
    0.6960   -8.3614    0.0000 C   0  0
   -0.7710   -8.0483    0.0000 C   0  0
   -1.7756   -9.1622    0.0000 C   0  0
   -1.2333   -6.6213    0.0000 C   0  0
   -0.2287   -5.5075    0.0000 C   0  0
   -0.6913   -4.0797    0.0000 S   0  0
   -2.1584   -3.7671    0.0000 O   0  0
   -1.6957   -5.1937    0.0000 O   0  0
    0.3114   -2.9665    0.0000 C   0  0
    1.8032   -3.1233    0.0000 C   0  0
    2.5551   -4.4192    0.0000 C   0  0
    1.8074   -5.7196    0.0000 O   0  0
    4.0559   -4.4171    0.0000 N   0  0
    4.8090   -5.7153    0.0000 C   0  0
    6.3098   -5.7131    0.0000 C   0  0
    7.0629   -7.0113    0.0000 N   0  0
    8.5630   -7.0113    0.0000 C   0  0
    9.3130   -8.3103    0.0000 C   0  0
    8.5631   -9.6094    0.0000 O   0  0
    7.0631   -9.6094    0.0000 C   0  0
    6.3130   -8.3104    0.0000 C   0  0
    2.4133   -1.7530    0.0000 N   0  0
    1.2990   -0.7500    0.0000 C   0  0
    1.2990    0.7500    0.0000 C   0  0
    0.0000    1.5000    0.0000 C   0  0
   -1.2990    0.7500    0.0000 C   0  0
   -2.6003    1.4977    0.0000 N   0  3
   -3.8983    0.7459    0.0000 O   0  0
   -2.6030    2.9977    0.0000 O   0  5
   -1.2990   -0.7500    0.0000 C   0  0
    0.0000   -1.5000    0.0000 C   0  0
    1.2383   -5.8206    0.0000 C   0  0
  1  2  1  0
  2  3  2  0
  3  4  1  0
  4  5  1  0
  4  6  2  0
  6  7  1  0
  7  8  1  0
  8  9  2  0
  8 10  2  0
  8 11  1  0
 11 12  2  0
 12 13  1  0
 13 14  2  0
 13 15  1  0
 15 16  1  0
 16 17  1  0
 17 18  1  0
 18 19  1  0
 19 20  1  0
 20 21  1  0
 21 22  1  0
 22 23  1  0
 23 18  1  0
 12 24  1  0
 24 25  1  0
 25 26  2  0
 26 27  1  0
 27 28  2  0
 28 29  1  0
 29 30  2  0
 29 31  1  0
 28 32  1  0
 32 33  2  0
 33 11  1  0
 33 25  1  0
  7 34  2  0
 34  2  1  0
M  CHG  2  29   1  31  -1
M  END
> <Smiles>
Cc1cc(C)cc(S(=O)(=O)c2c(C(=O)NCCN3CCOCC3)[nH]c3ccc([N+](=O)[O-])cc23)c1

> <IC50_uM>
0.421

> <pIC50>
6.375717904

> <Activity>
1

$$$$

  SciTegic10102310092D

 27 32  0  0  0  0            999 V2000
   -0.2079    2.9782    0.0000 Ga  0  7
    0.4455    3.7352    0.0000 Cl  0  5
    0.8707    2.4522    0.0000 Cl  0  5
    0.0000    2.0000    0.0000 N   0  3
   -0.8660    1.5000    0.0000 C   0  0
   -0.8660    0.5000    0.0000 C   0  0
    0.0000    0.0000    0.0000 C   0  0
    0.8660    0.5000    0.0000 C   0  0
    0.8660    1.5000    0.0000 C   0  0
   -1.6091    2.1691    0.0000 C   0  0
   -2.6036    2.0644    0.0000 C   0  0
   -3.1915    2.8733    0.0000 C   0  0
   -2.7849    3.7869    0.0000 C   0  0
   -1.7904    3.8916    0.0000 C   0  0
   -1.2025    3.0826    0.0000 N   0  3
    0.7866    2.8737    0.0000 N   0  3
    1.1933    3.7873    0.0000 C   0  0
    2.1878    3.8919    0.0000 C   0  0
    2.7756    3.0830    0.0000 C   0  0
    2.3690    2.1694    0.0000 C   0  0
    1.3745    2.0648    0.0000 C   0  0
    0.4501    4.4563    0.0000 C   0  0
    0.4501    5.4563    0.0000 C   0  0
   -0.4159    5.9563    0.0000 C   0  0
   -1.2819    5.4563    0.0000 C   0  0
   -1.2819    4.4563    0.0000 C   0  0
   -0.4159    3.9563    0.0000 N   0  3
  1  2  1  0
  1  3  1  0
  1  4  1  0
  4  5  2  0
  5  6  1  0
  6  7  2  0
  7  8  1  0
  8  9  2  0
  9  4  1  0
  5 10  1  0
 10 11  2  0
 11 12  1  0
 12 13  2  0
 13 14  1  0
 10 15  1  0
 15  1  1  0
 15 14  2  0
  1 16  1  0
 16 17  2  0
 17 18  1  0
 18 19  2  0
 19 20  1  0
 20 21  2  0
 21 16  1  0
 17 22  1  0
 22 23  2  0
 23 24  1  0
 24 25  2  0
 25 26  1  0
 22 27  1  0
 27  1  1  0
 27 26  2  0
M  CHG  7   1  -3   2  -1   3  -1   4   1  15   1  16   1  27   1
M  END
> <Smiles>
[Ga-3]12([Cl-])([Cl-])([n+]3c(cccc3)c(cccc4)[n+]14)[n+]5c(cccc5)c(cccc6)[n+]26

> <IC50_uM>
0.426579519

> <pIC50>
6.37

> <Activity>
1

$$$$

  SciTegic10102310092D

 53 56  0  0  0  0            999 V2000
    2.5951   -3.0031    0.0000 C   0  0
    2.5973   -1.5031    0.0000 C   0  0
    1.2990   -0.7500    0.0000 C   0  0
    1.2990    0.7500    0.0000 C   0  0
    2.5972    1.5031    0.0000 S   0  0
    2.5951    3.0039    0.0000 C   0  0
    3.8915    3.7585    0.0000 C   0  0
    3.8863    5.2585    0.0000 C   0  0
    5.1827    6.0130    0.0000 C   0  0
    2.5847    6.0040    0.0000 C   0  0
    1.2883    5.2495    0.0000 C   0  0
   -0.0134    5.9950    0.0000 C   0  0
    1.2934    3.7495    0.0000 C   0  0
    0.0000    1.5000    0.0000 N   0  0
   -0.0031    3.0008    0.0000 C   0  0
   -1.3039    3.7494    0.0000 C   0  0
   -1.3070    5.2502    0.0000 C   0  0
   -2.6078    5.9988    0.0000 C   0  0
   -2.6109    7.4996    0.0000 C   0  0
   -1.3132    8.2519    0.0000 O   0  0
   -3.9118    8.2481    0.0000 N   0  0
   -3.9149    9.7490    0.0000 C   0  0
   -5.2157   10.4975    0.0000 C   0  0
   -5.2188   11.9983    0.0000 C   0  0
   -6.5196   12.7469    0.0000 C   0  0
   -6.5227   14.2477    0.0000 C   0  0
   -7.8235   14.9963    0.0000 C   0  0
   -7.8266   16.4971    0.0000 C   0  0
   -9.1274   17.2456    0.0000 C   0  0
   -9.1305   18.7465    0.0000 C   0  0
  -10.4314   19.4950    0.0000 C   0  0
  -10.4345   20.9958    0.0000 C   0  0
  -11.7353   21.7444    0.0000 C   0  0
  -11.7384   23.2452    0.0000 N   0  0
  -13.0392   23.9938    0.0000 C   0  0
  -13.0445   25.4938    0.0000 C   0  0
  -14.3461   26.2393    0.0000 C   0  0
  -15.6426   25.4848    0.0000 N   0  0
  -16.9448   26.2306    0.0000 C   0  0  3  0  0  0
  -17.0902   27.7108    0.0000 C   0  0
  -18.5590   28.0153    0.0000 C   0  0
  -19.3024   26.7124    0.0000 C   0  0  3  0  0  0
  -20.7913   26.5452    0.0000 C   0  0
  -21.3925   25.1710    0.0000 O   0  0
  -18.2931   25.6028    0.0000 O   0  0
  -15.6374   23.9848    0.0000 C   0  0
  -16.9338   23.2303    0.0000 O   0  0
  -14.3357   23.2393    0.0000 N   0  0
   -1.2990    0.7500    0.0000 C   0  0
   -2.5981    1.5000    0.0000 O   0  0
   -1.2990   -0.7500    0.0000 N   0  0
    0.0000   -1.5000    0.0000 C   0  0
    0.0000   -3.0000    0.0000 O   0  0
  1  2  1  0
  2  3  1  0
  3  4  2  0
  4  5  1  0
  5  6  1  0
  6  7  2  0
  7  8  1  0
  8  9  1  0
  8 10  2  0
 10 11  1  0
 11 12  1  0
 11 13  2  0
 13  6  1  0
  4 14  1  0
 14 15  1  0
 15 16  1  0
 16 17  1  0
 17 18  1  0
 18 19  1  0
 19 20  2  0
 19 21  1  0
 21 22  1  0
 22 23  1  0
 23 24  1  0
 24 25  1  0
 25 26  1  0
 26 27  1  0
 27 28  1  0
 28 29  1  0
 29 30  1  0
 30 31  1  0
 31 32  1  0
 32 33  1  0
 33 34  1  0
 34 35  1  0
 35 36  1  0
 36 37  2  0
 37 38  1  0
 39 38  1  4
 39 40  1  0
 40 41  1  0
 41 42  1  0
 42 43  1  4
 43 44  1  0
 42 45  1  0
 45 39  1  0
 38 46  1  0
 46 47  2  0
 46 48  1  0
 48 35  2  0
 14 49  1  0
 49 50  2  0
 49 51  1  0
 51 52  1  0
 52  3  1  0
 52 53  2  0
M  END
> <Smiles>
CCc1c(Sc2cc(C)cc(C)c2)n(CCCCC(=O)NCCCCCCCCCCCCNc2ccn(C3CCC(CO)O3)c(=O)n2)c(=O)[nH]c1=O

> <IC50_uM>
0.43

> <pIC50>
6.366531544

> <Activity>
1

$$$$

  SciTegic10102310092D

 28 30  0  0  0  0            999 V2000
    3.8912   -5.2570    0.0000 C   0  0
    3.8933   -3.7570    0.0000 C   0  0
    2.5951   -3.0039    0.0000 O   0  0
    2.5973   -1.5031    0.0000 C   0  0
    1.2990   -0.7500    0.0000 N   0  0
    1.2990    0.7500    0.0000 C   0  0
    2.5972    1.5031    0.0000 C   0  0
    2.5951    3.0039    0.0000 C   0  0
    3.8915    3.7585    0.0000 C   0  0
    3.8863    5.2585    0.0000 C   0  0
    2.5847    6.0040    0.0000 C   0  0
    2.5795    7.5047    0.0000 C   0  0
    3.8747    8.2614    0.0000 C   0  0
    3.8671    9.7614    0.0000 C   0  0
    2.5643   10.5048    0.0000 C   0  0
    2.5568   12.0048    0.0000 Cl  0  0
    1.2691    9.7483    0.0000 C   0  0
   -0.0337   10.4917    0.0000 F   0  0
    1.2767    8.2483    0.0000 C   0  0
    1.2883    5.2495    0.0000 C   0  0
    1.2934    3.7495    0.0000 C   0  0
    0.0000    1.5000    0.0000 C   0  0
   -1.2990    0.7500    0.0000 C   0  0
   -2.5981    1.5000    0.0000 O   0  0
   -1.2990   -0.7500    0.0000 N   0  0
   -2.5981   -1.5000    0.0000 O   0  0
    0.0000   -1.5000    0.0000 C   0  0
    0.0000   -3.0000    0.0000 O   0  0
  1  2  1  0
  2  3  1  0
  3  4  1  0
  4  5  1  0
  5  6  1  0
  6  7  1  0
  7  8  1  0
  8  9  2  0
  9 10  1  0
 10 11  2  0
 11 12  1  0
 12 13  2  0
 13 14  1  0
 14 15  2  0
 15 16  1  0
 15 17  1  0
 17 18  1  0
 17 19  2  0
 19 12  1  0
 11 20  1  0
 20 21  2  0
 21  8  1  0
  6 22  2  0
 22 23  1  0
 23 24  2  0
 23 25  1  0
 25 26  1  0
 25 27  1  0
 27  5  1  0
 27 28  2  0
M  END
> <Smiles>
CCOCn1c(Cc2ccc(-c3ccc(Cl)c(F)c3)cc2)cc(=O)n(O)c1=O

> <IC50_uM>
0.43

> <pIC50>
6.366531544

> <Activity>
1

$$$$

  SciTegic10102310092D

  6  6  0  0  0  0            999 V2000
    1.6317   -2.2458    0.0000 O   0  0
    0.7500   -1.0323    0.0000 S   0  0
    1.2135    0.3943    0.0000 O   0  0
    0.0000    1.2760    0.0000 C   0  0
   -1.2135    0.3943    0.0000 C   0  0
   -0.7500   -1.0323    0.0000 O   0  0
  1  2  2  0
  2  3  1  0
  3  4  1  0
  4  5  1  0
  5  6  1  0
  6  2  1  0
M  END
> <Smiles>
O=S1OCCO1

> <IC50_uM>
0.436515832

> <pIC50>
6.36

> <Activity>
1

$$$$

  SciTegic10102310092D

  8  9  0  0  0  0            999 V2000
    0.7500   -1.0323    0.0000 C   0  0
    1.2135    0.3943    0.0000 N   0  0
    0.0000    1.2760    0.0000 N   0  0
   -1.2135    0.3943    0.0000 C   0  0
   -0.7500   -1.0323    0.0000 C   0  0
    2.7115    0.3950    0.0000 C   0  0
    3.1750   -1.0316    0.0000 C   0  0
    1.9615   -1.9133    0.0000 N   0  0
  1  2  1  0
  2  3  1  0
  3  4  2  0
  4  5  1  0
  5  1  2  0
  2  6  1  0
  6  7  1  0
  7  8  1  0
  8  1  1  0
M  END
> <Smiles>
c12n(ncc1)CCN2

> <IC50_uM>
0.436515832

> <pIC50>
6.36

> <Activity>
1

$$$$

  SciTegic10102310092D

  8  9  0  0  0  0            999 V2000
    0.7500   -1.0323    0.0000 C   0  0
    1.2135    0.3943    0.0000 N   0  0
    0.0000    1.2760    0.0000 C   0  0
   -1.2135    0.3943    0.0000 C   0  0
   -0.7500   -1.0323    0.0000 C   0  0
    2.7115    0.3950    0.0000 N   0  0
    3.1750   -1.0316    0.0000 N   0  0
    1.9615   -1.9133    0.0000 N   0  0
  1  2  1  0
  2  3  1  0
  3  4  1  0
  4  5  1  0
  5  1  1  0
  2  6  1  0
  6  7  2  0
  7  8  1  0
  8  1  2  0
M  END
> <Smiles>
c12n(CCC1)nnn2

> <IC50_uM>
0.436515832

> <pIC50>
6.36

> <Activity>
1

$$$$

  SciTegic10102310092D

 24 25  0  0  1  0            999 V2000
    3.8912   -5.2570    0.0000 C   0  0
    3.8933   -3.7570    0.0000 C   0  0
    2.5951   -3.0039    0.0000 C   0  0
    2.5973   -1.5031    0.0000 N   0  0
    3.8976   -0.7553    0.0000 C   0  0
    1.2990   -0.7500    0.0000 C   0  0
    1.2990    0.7500    0.0000 N   0  0
    0.0000    1.5000    0.0000 C   0  0
    0.0031    3.0008    0.0000 C   0  0  1  0  0  0
   -1.2969    3.7508    0.0000 O   0  0
   -2.5962    3.0012    0.0000 C   0  0
    1.3039    3.7494    0.0000 C   0  0
    1.3092    5.2494    0.0000 C   0  0
    0.0127    6.0039    0.0000 Cl  0  0
    2.6108    5.9949    0.0000 C   0  0
    3.9072    5.2405    0.0000 C   0  0
    3.9020    3.7405    0.0000 C   0  0
    2.6004    2.9949    0.0000 C   0  0
    2.5953    1.4950    0.0000 Cl  0  0
   -1.2990    0.7500    0.0000 C   0  0
   -2.5981    1.5000    0.0000 C   0  0
   -1.2990   -0.7500    0.0000 C   0  0
   -2.5981   -1.5000    0.0000 O   0  0
    0.0000   -1.5000    0.0000 N   0  0
  1  2  1  0
  2  3  1  0
  3  4  1  0
  4  5  1  0
  4  6  1  0
  6  7  2  0
  7  8  1  0
  8  9  1  0
  9 10  1  1
 10 11  1  0
  9 12  1  0
 12 13  2  0
 13 14  1  0
 13 15  1  0
 15 16  2  0
 16 17  1  0
 17 18  2  0
 18 12  1  0
 18 19  1  0
  8 20  2  0
 20 21  1  0
 20 22  1  0
 22 23  2  0
 22 24  1  0
 24  6  1  0
M  END
> <Smiles>
CCCN(C)c1nc([C@@H](OC)c2c(Cl)cccc2Cl)c(C)c(=O)[nH]1

> <IC50_uM>
0.438

> <pIC50>
6.358525889

> <Activity>
1

$$$$

  SciTegic10102310092D

 29 32  0  0  0  0            999 V2000
   -0.6923   -4.0811    0.0000 C   0  0
    0.3114   -2.9665    0.0000 C   0  0
    1.8032   -3.1233    0.0000 N   0  0
    2.4133   -1.7530    0.0000 C   0  0
    3.8794   -1.4442    0.0000 C   0  0
    4.8823   -2.5608    0.0000 C   0  0
    6.3509   -2.2515    0.0000 C   0  0
    7.3538   -3.3681    0.0000 C   0  0
    8.8224   -3.0588    0.0000 C   0  0
    9.8253   -4.1753    0.0000 C   0  0
   11.2939   -3.8660    0.0000 C   0  0
   11.7596   -2.4402    0.0000 O   0  0
   12.2967   -4.9826    0.0000 C   0  0
   13.7650   -4.6756    0.0000 C   0  0
   14.7651   -5.7936    0.0000 C   0  0
   14.2969   -7.2187    0.0000 C   0  0
   12.8286   -7.5258    0.0000 C   0  0
   11.8286   -6.4078    0.0000 C   0  0
    1.2990   -0.7500    0.0000 N   0  0
    1.2990    0.7500    0.0000 N   0  0
    0.0000    1.5000    0.0000 C   0  0
    0.0000    3.0008    0.0000 N   0  0
    1.2121    3.8625    0.0000 C   0  0
    0.7463    5.2884    0.0000 N   0  0
   -0.7537    5.2860    0.0000 C   0  0
   -1.2149    3.8587    0.0000 N   0  0
   -1.2990    0.7500    0.0000 C   0  0
   -1.2990   -0.7500    0.0000 C   0  0
    0.0000   -1.5000    0.0000 C   0  0
  1  2  1  0
  2  3  1  0
  3  4  2  0
  4  5  1  0
  5  6  1  0
  6  7  1  0
  7  8  1  0
  8  9  1  0
  9 10  1  0
 10 11  1  0
 11 12  2  0
 11 13  1  0
 13 14  2  0
 14 15  1  0
 15 16  2  0
 16 17  1  0
 17 18  2  0
 18 13  1  0
  4 19  1  0
 19 20  1  0
 20 21  2  0
 21 22  1  0
 22 23  1  0
 23 24  2  0
 24 25  1  0
 25 26  2  0
 26 22  1  0
 21 27  1  0
 27 28  2  0
 28 29  1  0
 29  2  2  0
 29 19  1  0
M  END
> <Smiles>
Cc1nc(CCCCCCC(=O)c2ccccc2)n2nc(-n3cncn3)ccc12

> <IC50_uM>
0.44

> <pIC50>
6.356547324

> <Activity>
1

$$$$

  SciTegic10102310092D

 33 35  0  0  0  0            999 V2000
   -4.6589   -7.1702    0.0000 N   0  0
   -3.2450   -6.6694    0.0000 C   0  0
   -1.8348   -6.1949    0.0000 C   0  0  3  0  0  0
   -0.6883   -7.1426    0.0000 C   0  0
    0.7266   -6.6420    0.0000 O   0  0
    1.8682   -7.6163    0.0000 P   0  0
    0.4543   -8.1173    0.0000 O   0  0
    1.5949   -9.0912    0.0000 O   0  0
    3.2831   -7.1157    0.0000 O   0  0
    4.4246   -8.0900    0.0000 P   0  0
    3.0108   -8.5910    0.0000 O   0  0
    4.1513   -9.5649    0.0000 O   0  0
    5.8395   -7.5894    0.0000 O   0  0
    6.9811   -8.5637    0.0000 P   0  0
    8.3952   -8.0634    0.0000 O   0  0
    8.1216   -9.5380    0.0000 O   0  0
    6.7078  -10.0386    0.0000 O   0  0
   -0.4810   -5.5489    0.0000 C   0  0
   -0.6928   -4.0817    0.0000 C   0  0  3  0  0  0
    0.3114   -2.9665    0.0000 N   0  0
    1.8032   -3.1233    0.0000 C   0  0
    2.4133   -1.7530    0.0000 N   0  0
    1.2990   -0.7500    0.0000 C   0  0
    1.2990    0.7500    0.0000 C   0  0
    2.5981    1.5000    0.0000 O   0  0
    0.0000    1.5000    0.0000 N   0  0
   -1.2990    0.7500    0.0000 C   0  0
   -2.5981    1.5000    0.0000 N   0  0
   -1.2990   -0.7500    0.0000 N   0  0
    0.0000   -1.5000    0.0000 C   0  0
   -2.1519   -3.7886    0.0000 C   0  0
   -2.8675   -5.1069    0.0000 C   0  0  3  0  0  0
   -4.3546   -5.3029    0.0000 O   0  0
  1  2  3  0
  3  2  1  4
  3  4  1  0
  4  5  1  0
  5  6  1  0
  6  7  2  0
  6  8  1  0
  6  9  1  0
  9 10  1  0
 10 11  2  0
 10 12  1  0
 10 13  1  0
 13 14  1  0
 14 15  2  0
 14 16  1  0
 14 17  1  0
  3 18  1  0
 18 19  1  0
 19 20  1  4
 20 21  1  0
 21 22  2  0
 22 23  1  0
 23 24  1  0
 24 25  2  0
 24 26  1  0
 26 27  1  0
 27 28  1  0
 27 29  2  0
 29 30  1  0
 30 23  2  0
 30 20  1  0
 19 31  1  0
 31 32  1  0
 32  3  1  0
 32 33  1  4
M  END
> <Smiles>
N#CC1(COP(=O)(O)OP(=O)(O)OP(=O)(O)O)CC(n2cnc3c(=O)[nH]c(N)nc32)CC1O

> <IC50_uM>
0.444

> <pIC50>
6.35261703

> <Activity>
1

$$$$

  SciTegic10102310092D

 26 28  0  0  0  0            999 V2000
    2.5981   -1.5000    0.0000 C   0  0
    1.2990   -0.7500    0.0000 C   0  0
    1.2990    0.7500    0.0000 C   0  0
    2.5981    1.5000    0.0000 Cl  0  0
    0.0000    1.5000    0.0000 N   0  0
   -1.2990    0.7500    0.0000 C   0  0
   -2.6003    1.4977    0.0000 N   0  0
   -3.8990    0.7455    0.0000 C   0  0
   -5.2007    1.4909    0.0000 C   0  0
   -6.4972    0.7364    0.0000 C   0  0
   -6.4920   -0.7636    0.0000 C   0  0
   -7.7891   -1.5185    0.0000 C   0  0
   -9.0855   -2.2730    0.0000 N   0  0
   -5.1903   -1.5091    0.0000 C   0  0
   -3.8939   -0.7546    0.0000 C   0  0
   -1.2990   -0.7500    0.0000 N   0  0
    0.0000   -1.5000    0.0000 C   0  0
   -0.0031   -3.0008    0.0000 C   0  0
   -1.3039   -3.7494    0.0000 C   0  0
   -1.3092   -5.2494    0.0000 C   0  0
   -0.0128   -6.0039    0.0000 F   0  0
   -2.6108   -5.9949    0.0000 C   0  0
   -3.9072   -5.2404    0.0000 C   0  0
   -3.9020   -3.7404    0.0000 C   0  0
   -2.6004   -2.9949    0.0000 C   0  0
   -2.5953   -1.4949    0.0000 F   0  0
  1  2  1  0
  2  3  2  0
  3  4  1  0
  3  5  1  0
  5  6  2  0
  6  7  1  0
  7  8  1  0
  8  9  2  0
  9 10  1  0
 10 11  2  0
 11 12  1  0
 12 13  3  0
 11 14  1  0
 14 15  2  0
 15  8  1  0
  6 16  1  0
 16 17  2  0
 17  2  1  0
 17 18  1  0
 18 19  1  0
 19 20  2  0
 20 21  1  0
 20 22  1  0
 22 23  2  0
 23 24  1  0
 24 25  2  0
 25 19  1  0
 25 26  1  0
M  END
> <Smiles>
Cc1c(Cl)nc(Nc2ccc(C#N)cc2)nc1Cc1c(F)cccc1F

> <IC50_uM>
0.445

> <pIC50>
6.351639989

> <Activity>
1

$$$$

  SciTegic10102310092D

  8  9  0  0  0  0            999 V2000
    0.7500   -1.0323    0.0000 C   0  0
    1.2135    0.3943    0.0000 N   0  0
    0.0000    1.2760    0.0000 N   0  0
   -1.2135    0.3943    0.0000 N   0  0
   -0.7500   -1.0323    0.0000 N   0  0
    2.7115    0.3950    0.0000 C   0  0
    3.1750   -1.0316    0.0000 C   0  0
    1.9615   -1.9133    0.0000 N   0  0
  1  2  1  0
  2  3  1  0
  3  4  2  0
  4  5  1  0
  5  1  2  0
  2  6  1  0
  6  7  1  0
  7  8  1  0
  8  1  1  0
M  END
> <Smiles>
c12n(nnn1)CCN2

> <IC50_uM>
0.446683592

> <pIC50>
6.35

> <Activity>
1

$$$$

  SciTegic10102310092D

 42 45  0  0  1  0            999 V2000
   12.9842    1.5415    0.0000 C   0  0
   11.6901    0.7829    0.0000 C   0  0
   10.8210    1.2774    0.0000 C   0  0
   11.6992   -0.7179    0.0000 C   0  0
   10.4044   -1.4769    0.0000 N   0  0
    9.1015   -0.7321    0.0000 C   0  0
    9.0941    0.7687    0.0000 C   0  0  1  0  0  0
    9.9578    1.2727    0.0000 O   0  0
    7.7912    1.5136    0.0000 C   0  0  2  0  0  0
    6.4933    0.7599    0.0000 C   0  0
    5.1912    1.5062    0.0000 C   0  0
    5.1833    3.0062    0.0000 C   0  0
    3.8804    3.7494    0.0000 C   0  0
    2.5852    2.9927    0.0000 C   0  0
    2.5930    1.4927    0.0000 C   0  0
    3.8960    0.7495    0.0000 C   0  0
    7.7838    3.0144    0.0000 N   0  0
    6.4808    3.7592    0.0000 C   0  0
    5.6171    3.2553    0.0000 O   0  0
    6.4735    5.2601    0.0000 C   0  0
    5.1705    6.0049    0.0000 C   0  0
    3.8762    5.2467    0.0000 C   0  0
    2.5725    5.9885    0.0000 C   0  0
    1.2782    5.2303    0.0000 C   0  0
   -0.0255    5.9720    0.0000 C   0  0
   -0.0350    7.4720    0.0000 C   0  0
   -1.3388    8.2138    0.0000 O   0  0
    1.2592    8.2302    0.0000 C   0  0
    2.5630    7.4884    0.0000 C   0  0
    3.8573    8.2466    0.0000 O   0  0
    5.1610    7.5049    0.0000 C   0  0
    6.4553    8.2631    0.0000 O   0  0
   10.4118   -2.9777    0.0000 S   0  0
    9.1092   -2.2339    0.0000 O   0  0
    9.1162   -3.7337    0.0000 O   0  0
   11.7147   -3.7226    0.0000 C   0  0
   13.0106   -2.9670    0.0000 C   0  0
   14.3128   -3.7115    0.0000 C   0  0
   14.3192   -5.2115    0.0000 C   0  0
   15.6214   -5.9559    0.0000 N   0  0
   13.0234   -5.9670    0.0000 C   0  0
   11.7211   -5.2226    0.0000 C   0  0
  1  2  1  0
  2  3  1  0
  2  4  1  0
  4  5  1  0
  5  6  1  0
  6  7  1  0
  7  8  1  6
  7  9  1  0
  9 10  1  6
 10 11  1  0
 11 12  2  0
 12 13  1  0
 13 14  2  0
 14 15  1  0
 15 16  2  0
 16 11  1  0
  9 17  1  0
 17 18  1  0
 18 19  2  0
 18 20  1  0
 20 21  1  0
 21 22  2  0
 22 23  1  0
 23 24  2  0
 24 25  1  0
 25 26  2  0
 26 27  1  0
 26 28  1  0
 28 29  2  0
 29 23  1  0
 29 30  1  0
 30 31  1  0
 31 21  1  0
 31 32  2  0
  5 33  1  0
 33 34  2  0
 33 35  2  0
 33 36  1  0
 36 37  2  0
 37 38  1  0
 38 39  2  0
 39 40  1  0
 39 41  1  0
 41 42  2  0
 42 36  1  0
M  END
> <Smiles>
CC(C)CN(C[C@@H](O)[C@H](Cc1ccccc1)NC(=O)Cc1cc2ccc(O)cc2oc1=O)S(=O)(=O)c1ccc(N)cc1

> <IC50_uM>
0.4508

> <pIC50>
6.346016093

> <Activity>
1

$$$$

  SciTegic10102310092D

 25 27  0  0  0  0            999 V2000
    3.8978   -2.2504    0.0000 N   0  0
    2.5988   -1.5004    0.0000 C   0  0
    1.2990   -0.7500    0.0000 C   0  0
    1.2990    0.7500    0.0000 C   0  0
    0.0000    1.5000    0.0000 C   0  0
   -1.2990    0.7500    0.0000 C   0  0
   -2.6003    1.4977    0.0000 N   0  0
   -3.8990    0.7455    0.0000 C   0  0
   -5.2007    1.4909    0.0000 C   0  0
   -6.4972    0.7364    0.0000 C   0  0
   -7.7988    1.4819    0.0000 N   0  0
   -6.4920   -0.7636    0.0000 N   0  0
   -5.1903   -1.5091    0.0000 C   0  0
   -5.1821   -3.0099    0.0000 C   0  0
   -3.8787   -3.7540    0.0000 C   0  0
   -3.8682   -5.2539    0.0000 C   0  0
   -5.1620   -6.0130    0.0000 Cl  0  0
   -2.5640   -5.9949    0.0000 C   0  0
   -1.2702   -5.2360    0.0000 C   0  0
   -1.2805   -3.7360    0.0000 C   0  0
   -2.5847   -2.9950    0.0000 C   0  0
   -2.5951   -1.4950    0.0000 Cl  0  0
   -3.8939   -0.7546    0.0000 N   0  0
   -1.2990   -0.7500    0.0000 C   0  0
    0.0000   -1.5000    0.0000 C   0  0
  1  2  3  0
  2  3  1  0
  3  4  2  0
  4  5  1  0
  5  6  2  0
  6  7  1  0
  7  8  1  0
  8  9  2  0
  9 10  1  0
 10 11  1  0
 10 12  2  0
 12 13  1  0
 13 14  1  0
 14 15  1  0
 15 16  2  0
 16 17  1  0
 16 18  1  0
 18 19  2  0
 19 20  1  0
 20 21  2  0
 21 15  1  0
 21 22  1  0
 13 23  2  0
 23  8  1  0
  6 24  1  0
 24 25  2  0
 25  3  1  0
M  END
> <Smiles>
N#Cc1ccc(Nc2cc(N)nc(Cc3c(Cl)cccc3Cl)n2)cc1

> <IC50_uM>
0.452

> <pIC50>
6.344861565

> <Activity>
1

$$$$

  SciTegic10102310092D

  8  8  0  0  0  0            999 V2000
    2.5981   -1.5000    0.0000 O   0  0
    1.2990   -0.7500    0.0000 C   0  0
    1.2990    0.7500    0.0000 C   0  0
    0.0000    1.5000    0.0000 O   0  0
   -1.2990    0.7500    0.0000 N   0  0
   -1.2990   -0.7500    0.0000 C   0  0
   -2.5981   -1.5000    0.0000 C   0  0
    0.0000   -1.5000    0.0000 N   0  0
  1  2  2  0
  2  3  1  0
  3  4  1  0
  4  5  1  0
  5  6  1  0
  6  7  1  0
  6  8  2  0
  8  2  1  0
M  END
> <Smiles>
O=C1CONC(C)=N1

> <IC50_uM>
0.45708819

> <pIC50>
6.34

> <Activity>
1

$$$$

  SciTegic10102310092D

  8  8  0  0  0  0            999 V2000
    1.2990   -0.7500    0.0000 O   0  0
    1.2990    0.7500    0.0000 C   0  0
    0.0000    1.5000    0.0000 C   0  0
    0.0000    3.0000    0.0000 O   0  0
   -1.2990    0.7500    0.0000 N   0  0
   -1.2990   -0.7500    0.0000 C   0  0
   -2.5981   -1.5000    0.0000 O   0  0
    0.0000   -1.5000    0.0000 C   0  0
  1  2  1  0
  2  3  1  0
  3  4  2  0
  3  5  1  0
  5  6  1  0
  6  7  2  0
  6  8  1  0
  8  1  1  0
M  END
> <Smiles>
O1CC(=O)NC(=O)C1

> <IC50_uM>
0.45708819

> <pIC50>
6.34

> <Activity>
1

$$$$

  SciTegic10102310092D

 25 24  0  0  0  0            999 V2000
    0.0007    0.0004    0.0000 C   0  0
    1.3000    0.7500    0.0000 C   0  0
    2.6000    0.0000    0.0000 N   0  0
    3.9000    0.7500    0.0000 C   0  0
    5.2000    0.0000    0.0000 C   0  0
    6.5000    0.7500    0.0000 C   0  0
    7.7999    0.0000    0.0000 C   0  0
    9.0999    0.7500    0.0000 N   0  0
   10.3999    0.0000    0.0000 C   0  0
   11.6999    0.7500    0.0000 C   0  0
   12.9999    0.0000    0.0000 C   0  0
   14.2999    0.7500    0.0000 C   0  0
   15.5999    0.0000    0.0000 N   0  0
   16.8999    0.7500    0.0000 C   0  0
   18.1999    0.0000    0.0000 C   0  0
   19.4998    0.7500    0.0000 C   0  0
   20.7998    0.0000    0.0000 C   0  0
   22.0998    0.7500    0.0000 N   0  0
   23.3998    0.0000    0.0000 C   0  0
   24.6998    0.7500    0.0000 C   0  0
   25.9998    0.0000    0.0000 C   0  0
   27.2998    0.7500    0.0000 C   0  0
   28.5998    0.0000    0.0000 N   0  0
   29.8998    0.7500    0.0000 C   0  0
   31.1990    0.0004    0.0000 C   0  0
  1  2  1  0
  2  3  1  0
  3  4  1  0
  4  5  1  0
  5  6  1  0
  6  7  1  0
  7  8  1  0
  8  9  1  0
  9 10  1  0
 10 11  1  0
 11 12  1  0
 12 13  1  0
 13 14  1  0
 14 15  1  0
 15 16  1  0
 16 17  1  0
 17 18  1  0
 18 19  1  0
 19 20  1  0
 20 21  1  0
 21 22  1  0
 22 23  1  0
 23 24  1  0
 24 25  1  0
M  END
> <Smiles>
CCNCCCCNCCCCNCCCCNCCCCNCC

> <IC50_uM>
0.45708819

> <pIC50>
6.34

> <Activity>
1

$$$$

  SciTegic10102310092D

  8  8  0  0  0  0            999 V2000
    0.7500   -1.0323    0.0000 C   0  0
    1.2135    0.3943    0.0000 C   0  0
    2.6401    0.8578    0.0000 O   0  0
    0.0000    1.2760    0.0000 C   0  0
    0.0000    2.7760    0.0000 O   0  0
   -1.2135    0.3943    0.0000 C   0  0
   -0.7500   -1.0323    0.0000 C   0  0
    1.6317   -2.2458    0.0000 O   0  0
  1  2  1  0
  2  3  1  0
  2  4  2  0
  4  5  1  0
  4  6  1  0
  6  7  1  0
  7  1  1  0
  1  8  2  0
M  END
> <Smiles>
C1(C(O)=C(O)CC1)=O

> <IC50_uM>
0.45708819

> <pIC50>
6.34

> <Activity>
1

$$$$

  SciTegic10102310092D

 51 53  0  0  0  0            999 V2000
   -3.9242    8.2181    0.0000 C   0  0  3  0  0  0
   -3.9356    9.7180    0.0000 O   0  0
   -2.6195    7.4779    0.0000 C   0  0  3  0  0  0
   -1.3262    8.2378    0.0000 O   0  0
   -2.6081    5.9780    0.0000 C   0  0  3  0  0  0
   -1.3042    5.2348    0.0000 N   0  0
   -0.0082    5.9916    0.0000 C   0  0
    1.2957    5.2484    0.0000 C   0  0  3  0  0  0
    1.3067    3.7476    0.0000 C   0  0
    2.6114    3.0058    0.0000 C   0  0
    2.6223    1.5059    0.0000 C   0  0
    3.4739    3.5118    0.0000 C   0  0
    2.5918    6.0052    0.0000 N   0  0
    3.8957    5.2620    0.0000 C   0  0
    5.1917    6.0187    0.0000 C   0  0  3  0  0  0
    5.1870    7.5196    0.0000 C   0  0
    6.4839    8.2749    0.0000 C   0  0
    7.7873    7.5326    0.0000 C   0  0
    9.0820    8.2901    0.0000 C   0  0
    9.0732    9.7901    0.0000 C   0  0
    7.7698   10.5325    0.0000 C   0  0
    6.4752    9.7750    0.0000 C   0  0
    6.4956    5.2755    0.0000 N   0  0
    7.7917    6.0323    0.0000 C   0  0
    9.0956    5.2891    0.0000 C   0  0
   10.3916    6.0459    0.0000 N   0  0
   11.6955    5.3027    0.0000 C   0  0
   12.9916    6.0595    0.0000 C   0  0
   14.2954    5.3163    0.0000 N   0  0
   15.5915    6.0731    0.0000 C   0  0
   16.8954    5.3299    0.0000 C   0  0  3  0  0  0
   16.9032    3.8299    0.0000 N   0  0
   18.1914    6.0867    0.0000 C   0  0
   19.4953    5.3435    0.0000 C   0  0
   20.7918    6.0980    0.0000 C   0  0
   22.0935    5.3525    0.0000 C   0  0
   22.0987    3.8525    0.0000 C   0  0
   20.8023    3.0980    0.0000 C   0  0
   23.4004    3.1071    0.0000 O   0  0
   19.5007    3.8434    0.0000 C   0  0
   15.5837    7.5731    0.0000 O   0  0
   11.7033    3.8027    0.0000 O   0  0
    7.7864    7.0323    0.0000 O   0  0
    3.9009    4.2620    0.0000 O   0  0
   -0.0160    7.4915    0.0000 O   0  0
   -3.9014    5.2181    0.0000 C   0  0  3  0  0  0
   -3.8900    3.7182    0.0000 O   0  0
   -5.2061    5.9582    0.0000 O   0  0
   -5.2175    7.4582    0.0000 C   0  0  3  0  0  0
   -6.5245    8.1960    0.0000 C   0  0
   -7.8167    7.4343    0.0000 O   0  0
  1  2  1  4
  1  3  1  0
  3  4  1  4
  3  5  1  0
  5  6  1  4
  6  7  1  0
  7  8  1  0
  8  9  1  4
  9 10  1  0
 10 11  1  0
 10 12  1  0
  8 13  1  0
 13 14  1  0
 14 15  1  0
 15 16  1  4
 16 17  1  0
 17 18  2  0
 18 19  1  0
 19 20  2  0
 20 21  1  0
 21 22  2  0
 22 17  1  0
 15 23  1  0
 23 24  1  0
 24 25  1  0
 25 26  1  0
 26 27  1  0
 27 28  1  0
 28 29  1  0
 29 30  1  0
 30 31  1  0
 31 32  1  4
 31 33  1  0
 33 34  1  0
 34 35  2  0
 35 36  1  0
 36 37  2  0
 37 38  1  0
 37 39  1  0
 34 40  1  0
 40 38  2  0
 30 41  2  0
 27 42  2  0
 24 43  2  0
 14 44  2  0
  7 45  2  0
  5 46  1  0
 46 47  1  4
 46 48  1  0
 48 49  1  0
 49  1  1  0
 49 50  1  4
 50 51  1  0
M  END
> <Smiles>
C1(O)C(O)C(NC(C(CC(C)C)NC(C(Cc2ccccc2)NC(CNC(CNC(C(N)Cc(ccc(c3)O)c3)=O)=O)=O)=O)=O)C(O)OC1CO

> <IC50_uM>
0.45708819

> <pIC50>
6.34

> <Activity>
1

$$$$

  SciTegic10102310092D

 43 46  0  0  1  0            999 V2000
   16.9185   -5.2069    0.0000 C   0  0
   15.6206   -5.9590    0.0000 O   0  0
   14.3192   -5.2115    0.0000 C   0  0
   14.3128   -3.7115    0.0000 C   0  0
   13.0105   -2.9670    0.0000 C   0  0
   11.7147   -3.7226    0.0000 C   0  0
   10.4118   -2.9777    0.0000 S   0  0
    9.1162   -3.7337    0.0000 O   0  0
    9.1092   -2.2339    0.0000 O   0  0
   10.4044   -1.4769    0.0000 N   0  0
   11.6992   -0.7179    0.0000 C   0  0
   11.6901    0.7829    0.0000 C   0  0
   12.9842    1.5415    0.0000 C   0  0
   10.8210    1.2774    0.0000 C   0  0
    9.1015   -0.7321    0.0000 C   0  0
    9.0941    0.7687    0.0000 C   0  0  1  0  0  0
    9.9578    1.2727    0.0000 O   0  0
    7.7912    1.5136    0.0000 C   0  0  2  0  0  0
    6.4933    0.7599    0.0000 C   0  0
    5.1912    1.5062    0.0000 C   0  0
    5.1833    3.0062    0.0000 C   0  0
    3.8804    3.7494    0.0000 C   0  0
    2.5852    2.9927    0.0000 C   0  0
    2.5930    1.4927    0.0000 C   0  0
    3.8960    0.7495    0.0000 C   0  0
    7.7838    3.0144    0.0000 N   0  0
    6.4808    3.7592    0.0000 C   0  0
    5.6171    3.2553    0.0000 O   0  0
    6.4735    5.2601    0.0000 C   0  0
    5.1705    6.0049    0.0000 C   0  0
    3.8762    5.2467    0.0000 C   0  0
    2.5725    5.9885    0.0000 C   0  0
    1.2782    5.2303    0.0000 O   0  0
    2.5630    7.4884    0.0000 O   0  0
    3.8573    8.2466    0.0000 C   0  0
    3.8478    9.7466    0.0000 C   0  0
    5.1420   10.5048    0.0000 C   0  0
    5.1325   12.0048    0.0000 O   0  0
    6.4458    9.7631    0.0000 C   0  0
    6.4553    8.2631    0.0000 C   0  0
    5.1610    7.5049    0.0000 C   0  0
   11.7211   -5.2226    0.0000 C   0  0
   13.0234   -5.9670    0.0000 C   0  0
  1  2  1  0
  2  3  1  0
  3  4  2  0
  4  5  1  0
  5  6  2  0
  6  7  1  0
  7  8  2  0
  7  9  2  0
  7 10  1  0
 10 11  1  0
 11 12  1  0
 12 13  1  0
 12 14  1  0
 10 15  1  0
 15 16  1  0
 16 17  1  6
 16 18  1  0
 18 19  1  6
 19 20  1  0
 20 21  2  0
 21 22  1  0
 22 23  2  0
 23 24  1  0
 24 25  2  0
 25 20  1  0
 18 26  1  0
 26 27  1  0
 27 28  2  0
 27 29  1  0
 29 30  1  0
 30 31  2  0
 31 32  1  0
 32 33  2  0
 32 34  1  0
 34 35  1  0
 35 36  2  0
 36 37  1  0
 37 38  1  0
 37 39  2  0
 39 40  1  0
 40 41  2  0
 41 30  1  0
 41 35  1  0
  6 42  1  0
 42 43  2  0
 43  3  1  0
M  END
> <Smiles>
COc1ccc(S(=O)(=O)N(CC(C)C)C[C@@H](O)[C@H](Cc2ccccc2)NC(=O)Cc2cc(=O)oc3cc(O)ccc23)cc1

> <IC50_uM>
0.4586

> <pIC50>
6.33856595

> <Activity>
1

$$$$

  SciTegic10102310092D

  7  7  0  0  0  0            999 V2000
    1.6317   -2.2458    0.0000 O   0  0
    0.7500   -1.0323    0.0000 C   0  0
    1.2135    0.3943    0.0000 C   0  0
    0.0000    1.2760    0.0000 S   0  0
   -1.2135    0.3943    0.0000 C   0  0
   -2.6401    0.8578    0.0000 N   0  0
   -0.7500   -1.0323    0.0000 N   0  0
  1  2  2  0
  2  3  1  0
  3  4  1  0
  4  5  1  0
  5  6  2  0
  5  7  1  0
  7  2  1  0
M  END
> <Smiles>
O=C1CSC(=N)N1

> <IC50_uM>
0.467735141

> <pIC50>
6.33

> <Activity>
1

$$$$

  SciTegic10102310092D

  7  7  0  0  0  0            999 V2000
    1.6317   -2.2458    0.0000 O   0  0
    0.7500   -1.0323    0.0000 C   0  0
    1.2135    0.3943    0.0000 C   0  0
    0.0000    1.2760    0.0000 S   0  0
   -1.2135    0.3943    0.0000 C   0  0
   -2.6401    0.8578    0.0000 O   0  0
   -0.7500   -1.0323    0.0000 N   0  0
  1  2  2  0
  2  3  1  0
  3  4  1  0
  4  5  1  0
  5  6  2  0
  5  7  1  0
  7  2  1  0
M  END
> <Smiles>
O=C1CSC(=O)N1

> <IC50_uM>
0.467735141

> <pIC50>
6.33

> <Activity>
1

$$$$

  SciTegic10102310092D

  8  7  0  0  0  0            999 V2000
    2.6000    0.0000    0.0000 N   0  0
    2.6000   -1.5000    0.0000 O   0  0
    1.3000    0.7500    0.0000 C   0  0
    0.0007    0.0004    0.0000 O   0  0
    1.3000    2.2500    0.0000 C   0  0
    3.9000    0.7500    0.0000 C   0  0
    5.1992    0.0004    0.0000 O   0  0
    3.9000    2.2500    0.0000 C   0  0
  1  2  1  0
  1  3  1  0
  3  4  2  0
  3  5  1  0
  1  6  1  0
  6  7  2  0
  6  8  1  0
M  END
> <Smiles>
N(O)(C(=O)C)C(=O)C

> <IC50_uM>
0.467735141

> <pIC50>
6.33

> <Activity>
1

$$$$

  SciTegic10102310092D

 25 26  0  0  0  0            999 V2000
   -3.9361   -9.7363    0.0000 Pt  0  6
   -3.9359  -11.2363    0.0000 N   0  0
   -2.6366   -8.9854    0.0000 N   0  0
   -2.6363   -7.4845    0.0000 C   0  0
   -1.3369   -6.7336    0.0000 C   0  0
   -1.3366   -5.2327    0.0000 C   0  0
   -0.0372   -4.4818    0.0000 C   0  0
   -0.0368   -2.9810    0.0000 C   0  0
    1.2626   -2.2300    0.0000 N   0  0
    1.2990   -0.7500    0.0000 Pt  0  6
    1.2990    0.7500    0.0000 O   0  3
    0.0000    1.5000    0.0000 C   0  0
    0.0000    3.0000    0.0000 O   0  0
   -1.2990    0.7500    0.0000 C   0  0
   -1.2990   -0.7500    0.0000 C   0  0
   -2.5981   -1.5000    0.0000 O   0  0
    0.0000   -1.5000    0.0000 O   0  3
    2.5793    0.0316    0.0000 N   0  0
   -3.9004   -8.2572    0.0000 O   0  3
   -5.1996   -7.5075    0.0000 C   0  0
   -5.2000   -6.0075    0.0000 O   0  0
   -6.4984   -8.2579    0.0000 C   0  0
   -6.4980   -9.7579    0.0000 C   0  0
   -7.7969  -10.5082    0.0000 O   0  0
   -5.1988  -10.5075    0.0000 O   0  3
  1  2  1  0
  1  3  1  0
  3  4  1  0
  4  5  1  0
  5  6  1  0
  6  7  1  0
  7  8  1  0
  8  9  1  0
  9 10  1  0
 10 11  1  0
 11 12  1  0
 12 13  2  0
 12 14  1  0
 14 15  1  0
 15 16  2  0
 15 17  1  0
 17 10  1  0
 10 18  1  0
  1 19  1  0
 19 20  1  0
 20 21  2  0
 20 22  1  0
 22 23  1  0
 23 24  2  0
 23 25  1  0
 25  1  1  0
M  CHG  6   1  -2  10  -2  11   1  17   1  19   1  25   1
M  END
> <Smiles>
[Pt-2]1(N)(NCCCCCN[Pt-2]2([OH+]C(=O)CC(=O)[OH+]2)N)[OH+]C(=O)CC(=O)[OH+]1

> <IC50_uM>
0.467735141

> <pIC50>
6.33

> <Activity>
1

$$$$

  SciTegic10102310092D

  8  7  0  0  0  0            999 V2000
    0.0007    0.0004    0.0000 C   0  0
    1.3000    0.7500    0.0000 O   0  0
    2.6000    0.0000    0.0000 C   0  0
    3.9000    0.7500    0.0000 C   0  0
    5.2000    0.0000    0.0000 C   0  0
    6.5000    0.7500    0.0000 C   0  0
    7.7999    0.0000    0.0000 C   0  0
    9.0992    0.7496    0.0000 O   0  0
  1  2  1  0
  2  3  1  0
  3  4  2  0
  4  5  1  0
  5  6  1  0
  6  7  1  0
  7  8  1  0
M  END
> <Smiles>
CO\C=C\CCCO

> <IC50_uM>
0.467735141

> <pIC50>
6.33

> <Activity>
1

$$$$

  SciTegic10102310092D

 36 39  0  0  1  0            999 V2000
    3.1676   -7.5606    0.0000 C   0  0
    1.7006   -7.2475    0.0000 C   0  0
    0.6960   -8.3614    0.0000 C   0  0
   -0.7710   -8.0483    0.0000 C   0  0
   -1.7756   -9.1622    0.0000 C   0  0
   -1.2333   -6.6213    0.0000 C   0  0
   -0.2287   -5.5075    0.0000 C   0  0
   -0.6913   -4.0797    0.0000 S   0  0
   -2.1584   -3.7671    0.0000 O   0  0
   -1.6957   -5.1937    0.0000 O   0  0
    0.3114   -2.9665    0.0000 C   0  0
    1.8032   -3.1233    0.0000 C   0  0
    2.5551   -4.4192    0.0000 C   0  0
    1.8074   -5.7196    0.0000 O   0  0
    4.0559   -4.4171    0.0000 N   0  0
    4.8090   -5.7153    0.0000 C   0  0  1  0  0  0
    4.0613   -7.0156    0.0000 C   0  0
    6.3098   -5.7131    0.0000 C   0  0
    7.0575   -4.4127    0.0000 O   0  0
    7.0629   -7.0113    0.0000 N   0  0
    8.5638   -7.0091    0.0000 C   0  0
    9.3169   -8.3073    0.0000 C   0  0
   10.8169   -8.3073    0.0000 C   0  0
   11.5670   -9.6063    0.0000 C   0  0
   10.8170  -10.9054    0.0000 N   0  0
    9.3170  -10.9055    0.0000 C   0  0
    8.5670   -9.6065    0.0000 N   0  0
    2.4133   -1.7530    0.0000 N   0  0
    1.2990   -0.7500    0.0000 C   0  0
    1.2990    0.7500    0.0000 C   0  0
    0.0000    1.5000    0.0000 C   0  0
   -1.2990    0.7500    0.0000 C   0  0
   -2.5981    1.5000    0.0000 Cl  0  0
   -1.2990   -0.7500    0.0000 C   0  0
    0.0000   -1.5000    0.0000 C   0  0
    1.2383   -5.8206    0.0000 C   0  0
  1  2  1  0
  2  3  2  0
  3  4  1  0
  4  5  1  0
  4  6  2  0
  6  7  1  0
  7  8  1  0
  8  9  2  0
  8 10  2  0
  8 11  1  0
 11 12  2  0
 12 13  1  0
 13 14  2  0
 13 15  1  0
 15 16  1  0
 16 17  1  6
 16 18  1  0
 18 19  2  0
 18 20  1  0
 20 21  1  0
 21 22  1  0
 22 23  2  0
 23 24  1  0
 24 25  2  0
 25 26  1  0
 26 27  2  0
 27 22  1  0
 12 28  1  0
 28 29  1  0
 29 30  2  0
 30 31  1  0
 31 32  2  0
 32 33  1  0
 32 34  1  0
 34 35  2  0
 35 11  1  0
 35 29  1  0
  7 36  2  0
 36  2  1  0
M  END
> <Smiles>
Cc1cc(C)cc(S(=O)(=O)c2c(C(=O)N[C@@H](C)C(=O)NCc3ccncn3)[nH]c3ccc(Cl)cc23)c1

> <IC50_uM>
0.47

> <pIC50>
6.327902142

> <Activity>
1

$$$$

  SciTegic10102310092D

 29 31  0  0  0  0            999 V2000
    2.5981   -1.5000    0.0000 C   0  0
    1.2990   -0.7500    0.0000 C   0  0
    1.2990    0.7500    0.0000 C   0  0
    0.0000    1.5000    0.0000 C   0  0
    0.0000    3.0008    0.0000 C   0  0
    0.0000    4.5008    0.0000 N   0  0
   -1.2990    0.7500    0.0000 C   0  0
   -1.2990   -0.7500    0.0000 C   0  0
   -2.5981   -1.5000    0.0000 C   0  0
    0.0000   -1.5000    0.0000 C   0  0
    0.0031   -3.0008    0.0000 O   0  0
    1.3039   -3.7494    0.0000 C   0  0
    1.3092   -5.2494    0.0000 C   0  0
    2.6108   -5.9949    0.0000 C   0  0
    3.9073   -5.2404    0.0000 N   0  0
    3.9021   -3.7404    0.0000 C   0  0
    5.1977   -2.9829    0.0000 S   0  0
    5.1903   -1.4820    0.0000 C   0  0
    6.4859   -0.7245    0.0000 C   0  0
    7.7889   -1.4677    0.0000 O   0  0
    6.4786    0.7763    0.0000 N   0  0
    7.7742    1.5339    0.0000 C   0  0
    9.0759    0.7885    0.0000 C   0  0
   10.3723    1.5430    0.0000 C   0  0
   10.3671    3.0430    0.0000 C   0  0
    9.0655    3.7884    0.0000 C   0  0
    7.7691    3.0339    0.0000 C   0  0
    6.4674    3.7794    0.0000 Cl  0  0
    2.6004   -2.9949    0.0000 N   0  0
  1  2  1  0
  2  3  2  0
  3  4  1  0
  4  5  1  0
  5  6  3  0
  4  7  2  0
  7  8  1  0
  8  9  1  0
  8 10  2  0
 10  2  1  0
 10 11  1  0
 11 12  1  0
 12 13  2  0
 13 14  1  0
 14 15  2  0
 15 16  1  0
 16 17  1  0
 17 18  1  0
 18 19  1  0
 19 20  2  0
 19 21  1  0
 21 22  1  0
 22 23  2  0
 23 24  1  0
 24 25  2  0
 25 26  1  0
 26 27  2  0
 27 22  1  0
 27 28  1  0
 16 29  2  0
 29 12  1  0
M  END
> <Smiles>
Cc1cc(C#N)cc(C)c1Oc1ccnc(SCC(=O)Nc2ccccc2Cl)n1

> <IC50_uM>
0.473

> <pIC50>
6.325138859

> <Activity>
1

$$$$

  SciTegic10102310092D

 41 44  0  0  1  0            999 V2000
   14.3120    5.2512    0.0000 C   0  0
   14.3068    3.7513    0.0000 O   0  0
   13.0049    3.0045    0.0000 C   0  0
   11.7064    3.7556    0.0000 C   0  0
   10.4068    3.0066    0.0000 C   0  0
   10.4056    1.5066    0.0000 C   0  0
    9.1053    0.7572    0.0000 S   0  0
    7.8071    1.5086    0.0000 O   0  0
    7.8053    0.0088    0.0000 O   0  0
    9.1031   -0.7436    0.0000 N   0  0
   10.4005   -1.4981    0.0000 C   0  0
   10.3967   -2.9990    0.0000 C   0  0
   11.6934   -3.7531    0.0000 C   0  0
    9.5293   -3.4965    0.0000 C   0  0
    7.8028   -1.4930    0.0000 C   0  0
    7.8007   -2.9938    0.0000 C   0  0  1  0  0  0
    8.6661   -3.4948    0.0000 O   0  0
    6.5003   -3.7432    0.0000 C   0  0  2  0  0  0
    5.1998   -2.9940    0.0000 C   0  0
    3.9003   -3.7449    0.0000 C   0  0
    3.8977   -5.2449    0.0000 C   0  0
    2.5973   -5.9927    0.0000 C   0  0
    1.2996   -5.2404    0.0000 C   0  0
    1.3022   -3.7404    0.0000 C   0  0
    2.6025   -2.9927    0.0000 C   0  0
    6.4982   -5.2440    0.0000 N   0  0
    5.1978   -5.9934    0.0000 C   0  0
    4.3324   -5.4925    0.0000 O   0  0
    5.1957   -7.4943    0.0000 C   0  0
    6.4952   -8.2434    0.0000 C   0  0
    6.4962   -9.7434    0.0000 C   0  0
    7.7957  -10.4926    0.0000 C   0  0
    7.7966  -11.9926    0.0000 C   0  0
    6.4981  -12.7434    0.0000 C   0  0
    5.1986  -11.9943    0.0000 C   0  0
    5.1976  -10.4943    0.0000 C   0  0
    3.8981   -9.7451    0.0000 O   0  0
    3.8972   -8.2451    0.0000 C   0  0
    2.5976   -7.4959    0.0000 O   0  0
   11.7041    0.7556    0.0000 C   0  0
   13.0037    1.5045    0.0000 C   0  0
  1  2  1  0
  2  3  1  0
  3  4  2  0
  4  5  1  0
  5  6  2  0
  6  7  1  0
  7  8  2  0
  7  9  2  0
  7 10  1  0
 10 11  1  0
 11 12  1  0
 12 13  1  0
 12 14  1  0
 10 15  1  0
 15 16  1  0
 16 17  1  1
 16 18  1  0
 18 19  1  1
 19 20  1  0
 20 21  2  0
 21 22  1  0
 22 23  2  0
 23 24  1  0
 24 25  2  0
 25 20  1  0
 18 26  1  0
 26 27  1  0
 27 28  2  0
 27 29  1  0
 29 30  2  0
 30 31  1  0
 31 32  2  0
 32 33  1  0
 33 34  2  0
 34 35  1  0
 35 36  2  0
 36 31  1  0
 36 37  1  0
 37 38  1  0
 38 29  1  0
 38 39  2  0
  6 40  1  0
 40 41  2  0
 41  3  1  0
M  END
> <Smiles>
COc1ccc(S(=O)(=O)N(CC(C)C)C[C@@H](O)[C@H](Cc2ccccc2)NC(=O)c2cc3ccccc3oc2=O)cc1

> <IC50_uM>
0.4738

> <pIC50>
6.324404944

> <Activity>
1

$$$$

  SciTegic10102310092D

  6  6  0  0  0  0            999 V2000
    1.6317   -2.2458    0.0000 S   0  0
    0.7500   -1.0323    0.0000 C   0  0
    1.2135    0.3943    0.0000 S   0  0
    0.0000    1.2760    0.0000 C   0  0
   -1.2135    0.3943    0.0000 C   0  0
   -0.7500   -1.0323    0.0000 N   0  0
  1  2  2  0
  2  3  1  0
  3  4  1  0
  4  5  1  0
  5  6  1  0
  6  2  1  0
M  END
> <Smiles>
S=C1SCCN1

> <IC50_uM>
0.478630092

> <pIC50>
6.32

> <Activity>
1

$$$$

  SciTegic10102310092D

  9 10  0  0  0  0            999 V2000
    1.2990   -0.7500    0.0000 C   0  0
    1.2990    0.7500    0.0000 C   0  0
    0.0000    1.5000    0.0000 C   0  0
   -1.2990    0.7500    0.0000 C   0  0
   -1.2990   -0.7500    0.0000 C   0  0
    0.0000   -1.5000    0.0000 C   0  0
    2.7248    1.2135    0.0000 N   0  0
    3.6065    0.0000    0.0000 O   0  0
    2.7248   -1.2135    0.0000 C   0  0
  1  2  1  0
  2  3  1  0
  3  4  2  0
  4  5  1  0
  5  6  2  0
  6  1  1  0
  2  7  2  0
  7  8  1  0
  8  9  1  0
  9  1  2  0
M  END
> <Smiles>
c12c(cccc1)noc2

> <IC50_uM>
0.478630092

> <pIC50>
6.32

> <Activity>
1

$$$$

  SciTegic10102310092D

  9 10  0  0  0  0            999 V2000
    1.2990   -0.7500    0.0000 C   0  0
    1.2990    0.7500    0.0000 N   0  0
    0.0000    1.5000    0.0000 C   0  0
   -1.2990    0.7500    0.0000 C   0  0
   -1.2990   -0.7500    0.0000 C   0  0
    0.0000   -1.5000    0.0000 C   0  0
    2.7248    1.2135    0.0000 N   0  0
    3.6065    0.0000    0.0000 N   0  0
    2.7248   -1.2135    0.0000 N   0  0
  1  2  1  0
  2  3  1  0
  3  4  2  0
  4  5  1  0
  5  6  2  0
  6  1  1  0
  2  7  1  0
  7  8  2  0
  8  9  1  0
  9  1  2  0
M  END
> <Smiles>
c12n(cccc1)nnn2

> <IC50_uM>
0.478630092

> <pIC50>
6.32

> <Activity>
1

$$$$

  SciTegic10102310092D

 35 38  0  0  0  0            999 V2000
    2.5981   -1.5000    0.0000 C   0  0
    1.2990   -0.7500    0.0000 C   0  0
    1.2990    0.7500    0.0000 C   0  0
    0.0000    1.5000    0.0000 C   0  0
    0.0000    3.0000    0.0000 C   0  0
   -1.2990    0.7500    0.0000 C   0  0
   -2.6003    1.4977    0.0000 N   0  0
   -3.8990    0.7455    0.0000 C   0  0
   -5.2007    1.4909    0.0000 C   0  0
   -6.4972    0.7364    0.0000 C   0  0
   -7.8010    1.4796    0.0000 O   0  0
   -9.0971    0.7229    0.0000 C   0  0
  -10.4010    1.4661    0.0000 C   0  0
  -11.6971    0.7093    0.0000 C   0  0
  -13.0009    1.4526    0.0000 N   0  0
  -14.2974    0.6981    0.0000 C   0  0
  -15.5991    1.4436    0.0000 C   0  0
  -15.6043    2.9436    0.0000 O   0  0
  -14.3079    3.6981    0.0000 C   0  0
  -13.0062    2.9526    0.0000 C   0  0
   -6.4920   -0.7636    0.0000 N   0  0
   -5.1903   -1.5091    0.0000 C   0  0
   -5.1821   -3.0099    0.0000 N   0  0
   -3.8787   -3.7540    0.0000 C   0  0
   -3.8682   -5.2539    0.0000 C   0  0
   -2.5640   -5.9949    0.0000 C   0  0
   -1.2702   -5.2360    0.0000 C   0  0
    0.0347   -5.9774    0.0000 C   0  0
    1.3389   -6.7184    0.0000 N   0  0
   -1.2805   -3.7360    0.0000 C   0  0
   -2.5847   -2.9950    0.0000 C   0  0
   -3.8939   -0.7546    0.0000 N   0  0
   -1.2990   -0.7500    0.0000 C   0  0
   -2.5981   -1.5000    0.0000 C   0  0
    0.0000   -1.5000    0.0000 C   0  0
  1  2  1  0
  2  3  2  0
  3  4  1  0
  4  5  1  0
  4  6  2  0
  6  7  1  0
  7  8  1  0
  8  9  2  0
  9 10  1  0
 10 11  1  0
 11 12  1  0
 12 13  1  0
 13 14  1  0
 14 15  1  0
 15 16  1  0
 16 17  1  0
 17 18  1  0
 18 19  1  0
 19 20  1  0
 20 15  1  0
 10 21  2  0
 21 22  1  0
 22 23  1  0
 23 24  1  0
 24 25  2  0
 25 26  1  0
 26 27  2  0
 27 28  1  0
 28 29  3  0
 27 30  1  0
 30 31  2  0
 31 24  1  0
 22 32  2  0
 32  8  1  0
  6 33  1  0
 33 34  1  0
 33 35  2  0
 35  2  1  0
M  END
> <Smiles>
Cc1cc(C)c(Nc2cc(OCCCN3CCOCC3)nc(Nc3ccc(C#N)cc3)n2)c(C)c1

> <IC50_uM>
0.48

> <pIC50>
6.318758763

> <Activity>
1

$$$$

  SciTegic10102310092D

  9  9  0  0  0  0            999 V2000
    2.5981   -1.5000    0.0000 C   0  0
    1.2990   -0.7500    0.0000 N   0  0
    1.2990    0.7500    0.0000 B   0  0
    0.0000    1.5000    0.0000 N   0  0
   -1.2990    0.7500    0.0000 B   0  0
   -1.2990   -0.7500    0.0000 N   0  0
   -2.5981   -1.5000    0.0000 C   0  0
    0.0000   -1.5000    0.0000 B   0  0
    0.0000    3.0000    0.0000 C   0  0
  1  2  1  0
  2  3  1  0
  3  4  1  0
  4  5  1  0
  5  6  1  0
  6  7  1  0
  6  8  1  0
  8  2  1  0
  4  9  1  0
M  END
> <Smiles>
CN1BN(BN(C)B1)C

> <IC50_uM>
0.489778819

> <pIC50>
6.31

> <Activity>
1

$$$$

  SciTegic10102310092D

  9 10  0  0  0  0            999 V2000
    0.3606   -4.2459    0.0000 O   0  0
    0.7488   -2.7970    0.0000 C   0  0
    2.0479   -2.0470    0.0000 N   0  0
    1.2990   -0.7500    0.0000 C   0  0  3  0  0  0
    1.2990    0.7500    0.0000 C   0  0
    0.0000    1.5000    0.0000 C   0  0
   -1.2990    0.7500    0.0000 C   0  0
   -1.2990   -0.7500    0.0000 C   0  0
    0.0000   -1.5000    0.0000 C   0  0  3  0  0  0
  1  2  2  0
  2  3  1  0
  4  3  1  4
  4  5  1  0
  5  6  1  0
  6  7  2  0
  7  8  1  0
  4  9  1  0
  9  2  1  0
  9  8  1  4
M  END
> <Smiles>
O=C1NC(CC=CC2)C12

> <IC50_uM>
0.489778819

> <pIC50>
6.31

> <Activity>
1

$$$$

  SciTegic10102310092D

 39 43  0  0  0  0            999 V2000
   -6.5345   -9.6863    0.0000 C   0  0
   -5.2417  -10.4471    0.0000 C   0  0
   -3.9353   -9.7084    0.0000 O   0  0
   -2.6419  -10.4696    0.0000 C   0  0
   -2.6548  -11.9696    0.0000 O   0  0
   -1.3354   -9.7309    0.0000 C   0  0
   -0.0416  -10.4898    0.0000 C   0  0
    1.2626   -9.7488    0.0000 C   0  0
    1.2731   -8.2489    0.0000 C   0  0
    2.5765   -7.5048    0.0000 C   0  0
    2.5847   -6.0040    0.0000 N   0  0
    3.8864   -5.2585    0.0000 C   0  0
    3.8915   -3.7585    0.0000 C   0  0
    2.5951   -3.0039    0.0000 C   0  0
    2.5973   -1.5031    0.0000 N   0  0
    1.2990   -0.7500    0.0000 C   0  0
    1.2990    0.7500    0.0000 N   0  0
    0.0000    1.5000    0.0000 C   0  0
    0.0031    3.0008    0.0000 O   0  0
    1.3039    3.7494    0.0000 C   0  0
    1.3092    5.2494    0.0000 C   0  0
    0.0127    6.0039    0.0000 C   0  0
    2.6108    5.9949    0.0000 C   0  0
    3.9072    5.2405    0.0000 C   0  0
    5.2096    5.9864    0.0000 C   0  0
    6.5112    6.7319    0.0000 N   0  0
    3.9020    3.7405    0.0000 C   0  0
    2.6004    2.9949    0.0000 C   0  0
    2.5953    1.4950    0.0000 C   0  0
   -1.2990    0.7500    0.0000 C   0  0
   -2.7248    1.2135    0.0000 C   0  0
   -3.6065    0.0000    0.0000 C   0  0
   -2.7248   -1.2135    0.0000 S   0  0
   -1.2990   -0.7500    0.0000 C   0  0
    0.0000   -1.5000    0.0000 N   0  0
    1.2935   -3.7495    0.0000 C   0  0
    1.2883   -5.2495    0.0000 C   0  0
   -0.0209   -7.4899    0.0000 C   0  0
   -1.3250   -8.2309    0.0000 C   0  0
  1  2  1  0
  2  3  1  0
  3  4  1  0
  4  5  2  0
  4  6  1  0
  6  7  2  0
  7  8  1  0
  8  9  2  0
  9 10  1  0
 10 11  1  0
 11 12  1  0
 12 13  1  0
 13 14  1  0
 14 15  1  0
 15 16  1  0
 16 17  2  0
 17 18  1  0
 18 19  1  0
 19 20  1  0
 20 21  2  0
 21 22  1  0
 21 23  1  0
 23 24  2  0
 24 25  1  0
 25 26  3  0
 24 27  1  0
 27 28  2  0
 28 20  1  0
 28 29  1  0
 18 30  2  0
 30 31  1  0
 31 32  2  0
 32 33  1  0
 33 34  1  0
 34 30  1  0
 34 35  2  0
 35 16  1  0
 14 36  1  0
 36 37  1  0
 37 11  1  0
  9 38  1  0
 38 39  2  0
 39  6  1  0
M  END
> <Smiles>
CCOC(=O)c1ccc(CN2CCC(Nc3nc(Oc4c(C)cc(C#N)cc4C)c4ccsc4n3)CC2)cc1

> <IC50_uM>
0.498

> <pIC50>
6.302770657

> <Activity>
1

$$$$

  SciTegic10102310092D

 21 22  0  0  0  0            999 V2000
    2.5981   -1.5000    0.0000 C   0  0
    1.2990   -0.7500    0.0000 C   0  0
    1.2990    0.7500    0.0000 C   0  0
    2.5972    1.5031    0.0000 C   0  0  3  0  0  0
    3.8976    0.7554    0.0000 C   0  0
    2.5951    3.0039    0.0000 C   0  0
    3.8915    3.7585    0.0000 C   0  0
    5.1932    3.0131    0.0000 F   0  0
    3.8863    5.2585    0.0000 C   0  0
    2.5847    6.0040    0.0000 C   0  0
    1.2883    5.2495    0.0000 C   0  0
    1.2934    3.7495    0.0000 C   0  0
   -0.0030    2.9951    0.0000 F   0  0
    0.0000    1.5000    0.0000 N   0  0
   -1.2990    0.7500    0.0000 C   0  0
   -2.6003    1.4977    0.0000 N   0  0
   -3.8983    0.7459    0.0000 C   0  0
   -2.6030    2.9977    0.0000 C   0  0
   -1.2990   -0.7500    0.0000 N   0  0
    0.0000   -1.5000    0.0000 C   0  0
    0.0000   -3.0000    0.0000 O   0  0
  1  2  1  0
  2  3  2  0
  3  4  1  0
  4  5  1  4
  4  6  1  0
  6  7  2  0
  7  8  1  0
  7  9  1  0
  9 10  2  0
 10 11  1  0
 11 12  2  0
 12  6  1  0
 12 13  1  0
  3 14  1  0
 14 15  2  0
 15 16  1  0
 16 17  1  0
 16 18  1  0
 15 19  1  0
 19 20  1  0
 20  2  1  0
 20 21  2  0
M  END
> <Smiles>
Cc1c(C(C)c2c(F)cccc2F)nc(N(C)C)[nH]c1=O

> <IC50_uM>
0.5

> <pIC50>
6.301029996

> <Activity>
1

$$$$

  SciTegic10102310092D

 23 25  0  0  0  0            999 V2000
    2.5981   -1.5000    0.0000 O   0  0
    1.2990   -0.7500    0.0000 C   0  0
    1.2990    0.7500    0.0000 C   0  0
    0.0000    1.5000    0.0000 C   0  0
   -1.2990    0.7500    0.0000 C   0  0
   -2.6003    1.4977    0.0000 C   0  0
   -3.8990    0.7455    0.0000 C   0  0
   -3.8939   -0.7546    0.0000 C   0  0
   -5.1903   -1.5091    0.0000 C   0  0
   -6.4920   -0.7636    0.0000 C   0  0
   -7.7884   -1.5181    0.0000 Cl  0  0
   -6.4972    0.7364    0.0000 C   0  0
   -7.7980    1.4850    0.0000 O   0  0
   -7.8010    2.9858    0.0000 C   0  0
   -9.1000    3.7359    0.0000 C   0  0
   -9.1000    5.2359    0.0000 C   0  0
   -7.8010    5.9859    0.0000 C   0  0
   -6.5020    5.2359    0.0000 C   0  0
   -6.5020    3.7359    0.0000 C   0  0
   -5.2007    1.4909    0.0000 C   0  0
   -5.2060    2.9909    0.0000 F   0  0
   -1.2990   -0.7500    0.0000 N   0  0
    0.0000   -1.5000    0.0000 N   0  0
  1  2  2  0
  2  3  1  0
  3  4  2  0
  4  5  1  0
  5  6  1  0
  6  7  1  0
  7  8  2  0
  8  9  1  0
  9 10  2  0
 10 11  1  0
 10 12  1  0
 12 13  1  0
 13 14  1  0
 14 15  2  0
 15 16  1  0
 16 17  2  0
 17 18  1  0
 18 19  2  0
 19 14  1  0
 12 20  2  0
 20  7  1  0
 20 21  1  0
  5 22  2  0
 22 23  1  0
 23  2  1  0
M  END
> <Smiles>
O=c1ccc(Cc2ccc(Cl)c(Oc3ccccc3)c2F)n[nH]1

> <IC50_uM>
0.5

> <pIC50>
6.301029996

> <Activity>
1

$$$$

  SciTegic10102310092D

 24 26  0  0  0  0            999 V2000
    3.8978   -2.2504    0.0000 N   0  0
    2.5988   -1.5004    0.0000 C   0  0
    1.2990   -0.7500    0.0000 C   0  0
    1.2990    0.7500    0.0000 C   0  0
    0.0000    1.5000    0.0000 C   0  0
   -1.2990    0.7500    0.0000 C   0  0
   -2.6003    1.4977    0.0000 N   0  0
   -3.8990    0.7455    0.0000 C   0  0
   -5.2007    1.4909    0.0000 N   0  0
   -6.4972    0.7364    0.0000 C   0  0
   -6.4920   -0.7636    0.0000 C   0  0
   -5.1903   -1.5091    0.0000 C   0  0
   -5.1821   -3.0099    0.0000 C   0  0
   -3.8787   -3.7540    0.0000 C   0  0
   -3.8682   -5.2539    0.0000 C   0  0
   -5.1620   -6.0130    0.0000 F   0  0
   -2.5640   -5.9949    0.0000 C   0  0
   -1.2702   -5.2360    0.0000 C   0  0
   -1.2805   -3.7360    0.0000 C   0  0
   -2.5847   -2.9950    0.0000 C   0  0
   -2.5951   -1.4950    0.0000 F   0  0
   -3.8939   -0.7546    0.0000 N   0  0
   -1.2990   -0.7500    0.0000 C   0  0
    0.0000   -1.5000    0.0000 C   0  0
  1  2  3  0
  2  3  1  0
  3  4  2  0
  4  5  1  0
  5  6  2  0
  6  7  1  0
  7  8  1  0
  8  9  2  0
  9 10  1  0
 10 11  2  0
 11 12  1  0
 12 13  1  0
 13 14  1  0
 14 15  2  0
 15 16  1  0
 15 17  1  0
 17 18  2  0
 18 19  1  0
 19 20  2  0
 20 14  1  0
 20 21  1  0
 12 22  2  0
 22  8  1  0
  6 23  1  0
 23 24  2  0
 24  3  1  0
M  END
> <Smiles>
N#Cc1ccc(Nc2nccc(Cc3c(F)cccc3F)n2)cc1

> <IC50_uM>
0.5

> <pIC50>
6.301029996

> <Activity>
1

$$$$

  SciTegic10102310092D

 33 36  0  0  0  0            999 V2000
    2.5981   -1.5000    0.0000 C   0  0
    1.2990   -0.7500    0.0000 C   0  0
    1.2990    0.7500    0.0000 C   0  0
    2.5972    1.5031    0.0000 O   0  0
    2.5951    3.0039    0.0000 C   0  0
    1.2934    3.7495    0.0000 C   0  0
    1.2883    5.2495    0.0000 C   0  0
    2.5847    6.0040    0.0000 C   0  0
    2.5795    7.5040    0.0000 F   0  0
    3.8863    5.2585    0.0000 C   0  0
    3.8915    3.7585    0.0000 C   0  0
    5.1954    3.0153    0.0000 O   0  0
    6.4915    3.7721    0.0000 C   0  0
    7.7954    3.0289    0.0000 C   0  0
    9.0914    3.7857    0.0000 N   0  0
    9.0810    5.2858    0.0000 C   0  0
   10.3748    6.0448    0.0000 C   0  0
   11.6791    5.3038    0.0000 C   0  0
   12.9729    6.0629    0.0000 O   0  0
   11.6895    3.8039    0.0000 N   0  0
   10.3957    3.0449    0.0000 C   0  0
   10.4062    1.5449    0.0000 O   0  0
    0.0000    1.5000    0.0000 C   0  0
   -1.2990    0.7500    0.0000 C   0  0
   -2.5981    1.5000    0.0000 Cl  0  0
   -1.2990   -0.7500    0.0000 C   0  0
   -2.5981   -1.5000    0.0000 C   0  0
   -2.5981   -3.0000    0.0000 C   0  0
   -1.2990   -3.7500    0.0000 C   0  0
   -1.2990   -5.2508    0.0000 C   0  0
   -1.2990   -6.7508    0.0000 N   0  0
    0.0000   -3.0000    0.0000 C   0  0
    0.0000   -1.5000    0.0000 C   0  0
  1  2  1  0
  2  3  2  0
  3  4  1  0
  4  5  1  0
  5  6  2  0
  6  7  1  0
  7  8  2  0
  8  9  1  0
  8 10  1  0
 10 11  2  0
 11  5  1  0
 11 12  1  0
 12 13  1  0
 13 14  1  0
 14 15  1  0
 15 16  1  0
 16 17  2  0
 17 18  1  0
 18 19  2  0
 18 20  1  0
 20 21  1  0
 21 15  1  0
 21 22  2  0
  3 23  1  0
 23 24  2  0
 24 25  1  0
 24 26  1  0
 26 27  2  0
 27 28  1  0
 28 29  2  0
 29 30  1  0
 30 31  3  0
 29 32  1  0
 32 33  2  0
 33  2  1  0
 33 26  1  0
M  END
> <Smiles>
Cc1c(Oc2ccc(F)cc2OCCn2ccc(=O)[nH]c2=O)cc(Cl)c2ccc(C#N)cc12

> <IC50_uM>
0.5

> <pIC50>
6.301029996

> <Activity>
1

$$$$

  SciTegic10102310092D

 35 38  0  0  0  0            999 V2000
   10.7867  -10.9530    0.0000 C   0  0
    9.2867  -10.9452    0.0000 C   0  0
    8.5422   -9.6421    0.0000 O   0  0
    7.0414   -9.6343    0.0000 C   0  0
    6.2954   -8.3329    0.0000 C   0  0
    4.7954   -8.3283    0.0000 C   0  0
    4.0413   -9.6250    0.0000 C   0  0
    2.5405   -9.6223    0.0000 N   0  0
    1.7882  -10.9210    0.0000 C   0  0
    0.2882  -10.9183    0.0000 O   0  0
    2.5359  -12.2223    0.0000 C   0  0
    1.7859  -13.5214    0.0000 C   0  0
    2.5359  -14.8204    0.0000 C   0  0
    4.0359  -14.8205    0.0000 N   0  0
    4.7860  -13.5215    0.0000 C   0  0
    6.2860  -13.5216    0.0000 Cl  0  0
    4.0360  -12.2224    0.0000 C   0  0
    1.7928   -8.3210    0.0000 C   0  0
    0.2928   -8.3184    0.0000 S   0  0
    2.5451   -7.0223    0.0000 O   0  0
    1.7974   -5.7210    0.0000 C   0  0
    2.5497   -4.4224    0.0000 C   0  0
    1.8032   -3.1233    0.0000 N   0  0
    2.4133   -1.7530    0.0000 C   0  0
    3.8805   -1.4410    0.0000 O   0  0
    1.2990   -0.7500    0.0000 C   0  0
    1.2990    0.7500    0.0000 C   0  0
    0.0000    1.5000    0.0000 C   0  0
   -1.2990    0.7500    0.0000 C   0  0
   -1.2990   -0.7500    0.0000 C   0  0
    0.0000   -1.5000    0.0000 C   0  0
    0.3114   -2.9665    0.0000 C   0  0
   -0.6923   -4.0811    0.0000 O   0  0
    4.7873  -10.9263    0.0000 C   0  0
    6.2873  -10.9310    0.0000 C   0  0
  1  2  1  0
  2  3  1  0
  3  4  1  0
  4  5  2  0
  5  6  1  0
  6  7  2  0
  7  8  1  0
  8  9  1  0
  9 10  2  0
  9 11  1  0
 11 12  2  0
 12 13  1  0
 13 14  2  0
 14 15  1  0
 15 16  1  0
 15 17  2  0
 17 11  1  0
  8 18  1  0
 18 19  2  0
 18 20  1  0
 20 21  1  0
 21 22  1  0
 22 23  1  0
 23 24  1  0
 24 25  2  0
 24 26  1  0
 26 27  2  0
 27 28  1  0
 28 29  2  0
 29 30  1  0
 30 31  2  0
 31 26  1  0
 31 32  1  0
 32 23  1  0
 32 33  2  0
  7 34  1  0
 34 35  2  0
 35  4  1  0
M  END
> <Smiles>
CCOc1ccc(N(C(=O)c2ccnc(Cl)c2)C(=S)OCCN2C(=O)c3ccccc3C2=O)cc1

> <IC50_uM>
0.5

> <pIC50>
6.301029996

> <Activity>
1

$$$$

  SciTegic10102310092D

 37 40  0  0  0  0            999 V2000
    6.4983   -0.7414    0.0000 C   0  0
    5.2003   -1.4932    0.0000 C   0  0
    3.8990   -0.7455    0.0000 C   0  0
    3.8964    0.7545    0.0000 O   0  0
    2.6003   -1.4977    0.0000 N   0  0
    2.6030   -2.9977    0.0000 C   0  0
    1.2990   -0.7500    0.0000 C   0  0
    1.2990    0.7500    0.0000 C   0  0
    0.0000    1.5000    0.0000 C   0  0
    0.0031    3.0008    0.0000 O   0  0
    1.3039    3.7494    0.0000 C   0  0
    2.6004    2.9949    0.0000 C   0  0
    3.9020    3.7405    0.0000 C   0  0
    3.9072    5.2405    0.0000 C   0  0
    2.6108    5.9949    0.0000 C   0  0
    1.3092    5.2494    0.0000 C   0  0
    0.0136    6.0070    0.0000 O   0  0
    0.0209    7.5078    0.0000 C   0  0
   -1.2746    8.2654    0.0000 C   0  0
   -1.2673    9.7662    0.0000 N   0  0
    0.0370   10.5073    0.0000 C   0  0
    0.0474   12.0073    0.0000 C   0  0
   -1.2464   12.7663    0.0000 C   0  0
   -1.2360   14.2662    0.0000 O   0  0
   -2.5506   12.0253    0.0000 N   0  0
   -2.5610   10.5253    0.0000 C   0  0
   -3.8653    9.7844    0.0000 O   0  0
   -1.2990    0.7500    0.0000 C   0  0
   -2.5981    1.5000    0.0000 C   0  0
   -1.2990   -0.7500    0.0000 C   0  0
   -2.5981   -1.5000    0.0000 C   0  0
   -2.5981   -3.0000    0.0000 C   0  0
   -3.8978   -3.7504    0.0000 C   0  0
   -5.1968   -4.5004    0.0000 N   0  0
   -1.2990   -3.7500    0.0000 C   0  0
    0.0000   -3.0000    0.0000 C   0  0
    0.0000   -1.5000    0.0000 C   0  0
  1  2  2  0
  2  3  1  0
  3  4  2  0
  3  5  1  0
  5  6  1  0
  5  7  1  0
  7  8  2  0
  8  9  1  0
  9 10  1  0
 10 11  1  0
 11 12  2  0
 12 13  1  0
 13 14  2  0
 14 15  1  0
 15 16  2  0
 16 11  1  0
 16 17  1  0
 17 18  1  0
 18 19  1  0
 19 20  1  0
 20 21  1  0
 21 22  2  0
 22 23  1  0
 23 24  2  0
 23 25  1  0
 25 26  1  0
 26 20  1  0
 26 27  2  0
  9 28  2  0
 28 29  1  0
 28 30  1  0
 30 31  2  0
 31 32  1  0
 32 33  1  0
 33 34  3  0
 32 35  2  0
 35 36  1  0
 36 37  2  0
 37  7  1  0
 37 30  1  0
M  END
> <Smiles>
C=CC(=O)N(C)c1cc(Oc2ccccc2OCCn2ccc(=O)[nH]c2=O)c(C)c2cc(C#N)ccc12

> <IC50_uM>
0.5

> <pIC50>
6.301029996

> <Activity>
1

$$$$

  SciTegic10102310092D

  9  9  0  0  0  0            999 V2000
    2.5981   -1.5000    0.0000 C   0  0
    1.2990   -0.7500    0.0000 N   0  0
    1.2990    0.7500    0.0000 N   0  0
    0.0000    1.5000    0.0000 C   0  0
   -1.2990    0.7500    0.0000 C   0  0
   -1.2990   -0.7500    0.0000 C   0  0
    0.0000   -1.5000    0.0000 C   0  0
    0.0000   -3.0000    0.0000 O   0  0
    0.0000    3.0000    0.0000 O   0  0
  1  2  1  0
  2  3  1  0
  3  4  1  0
  4  5  1  0
  5  6  2  0
  6  7  1  0
  7  2  1  0
  7  8  2  0
  4  9  2  0
M  END
> <Smiles>
CN1NC(C=CC1=O)=O

> <IC50_uM>
0.501187234

> <pIC50>
6.3

> <Activity>
1

$$$$

  SciTegic10102310092D

  9  8  0  0  0  0            999 V2000
    2.6000    0.0000    0.0000 N   0  0
    1.3000    0.7500    0.0000 C   0  0
    0.0007    0.0004    0.0000 O   0  0
    1.3000    2.2500    0.0000 C   0  0
    3.9000    0.7500    0.0000 C   0  0
    3.9000    2.2500    0.0000 N   0  0
    5.2000    0.0000    0.0000 N   0  0
    6.5000    0.7500    0.0000 C   0  0
    7.7992    1.4996    0.0000 N   0  0
  1  2  1  0
  2  3  2  0
  2  4  1  0
  1  5  1  0
  5  6  2  0
  5  7  1  0
  7  8  1  0
  8  9  3  0
M  END
> <Smiles>
N(C(=O)C)C(=N)NC#N

> <IC50_uM>
0.501187234

> <pIC50>
6.3

> <Activity>
1

$$$$

  SciTegic10102310092D

  9  9  0  0  0  0            999 V2000
    2.5981   -1.5000    0.0000 C   0  0
    1.2990   -0.7500    0.0000 C   0  0
    1.2990    0.7500    0.0000 C   0  0
    0.0000    1.5000    0.0000 C   0  0
   -1.2990    0.7500    0.0000 O   0  0
   -1.2990   -0.7500    0.0000 C   0  0
   -2.5981   -1.5000    0.0000 O   0  0
    0.0000   -1.5000    0.0000 C   0  0
    0.0000    3.0000    0.0000 O   0  0
  1  2  1  0
  2  3  2  0
  3  4  1  0
  4  5  1  0
  5  6  1  0
  6  7  1  0
  6  8  2  0
  8  2  1  0
  4  9  2  0
M  END
> <Smiles>
CC1=CC(OC(O)=C1)=O

> <IC50_uM>
0.501187234

> <pIC50>
6.3

> <Activity>
1

$$$$

  SciTegic10102310092D

  9  9  0  0  0  0            999 V2000
    2.5800    0.0305    0.0000 C   0  0
    1.2990   -0.7500    0.0000 C   0  0
    1.2990    0.7500    0.0000 C   0  0
    0.0000    1.5000    0.0000 C   0  0
   -1.2990    0.7500    0.0000 C   0  0
   -2.5981    1.5000    0.0000 O   0  0
   -1.2990   -0.7500    0.0000 C   0  0
    0.0000   -1.5000    0.0000 C   0  0
    1.2638   -2.2496    0.0000 O   0  0
  1  2  1  0
  2  3  1  0
  3  4  2  0
  4  5  1  0
  5  6  2  0
  5  7  1  0
  7  8  2  0
  8  2  1  0
  2  9  1  0
M  END
> <Smiles>
CC1(C=CC(=O)C=C1)O

> <IC50_uM>
0.501187234

> <pIC50>
6.3

> <Activity>
1

$$$$

  SciTegic10102310092D

  9 11  0  0  0  0            999 V2000
    2.1751   -0.8245    0.0000 N   0  0  3  0  0  0
    0.7500   -1.0323    0.0000 C   0  0  3  0  0  0
    1.2135    0.3943    0.0000 N   0  0  3  0  0  0
    0.0000    1.2760    0.0000 C   0  0
   -1.2135    0.3943    0.0000 C   0  0
   -0.7500   -1.0323    0.0000 C   0  0
    0.5299   -2.4911    0.0000 C   0  0
    1.8728   -3.1594    0.0000 C   0  0
    2.9233   -2.0887    0.0000 C   0  0
  1  2  1  0
  2  3  1  0
  3  1  1  0
  3  4  1  4
  4  5  1  0
  5  6  1  0
  2  6  1  4
  2  7  1  0
  7  8  1  0
  8  9  1  0
  1  9  1  4
M  END
> <Smiles>
N12C3(N1CCC3)CCC2

> <IC50_uM>
0.501187234

> <pIC50>
6.3

> <Activity>
1

$$$$

  SciTegic10102310092D

 40 43  0  0  0  0            999 V2000
    3.8983   -0.7512    0.0000 C   0  0
    2.5988   -1.5004    0.0000 C   0  0
    2.5983   -3.0004    0.0000 C   0  0
    3.8975   -2.2510    0.0000 C   0  0
    1.2990   -0.7500    0.0000 C   0  0
    1.2990    0.7500    0.0000 C   0  0
    0.0000    1.5000    0.0000 C   0  0
   -1.2990    0.7500    0.0000 C   0  0
   -2.5973    1.5031    0.0000 N   0  0
   -2.5951    3.0039    0.0000 C   0  0
   -1.2948    3.7516    0.0000 O   0  0
   -3.8933    3.7570    0.0000 C   0  0
   -3.8912    5.2578    0.0000 C   0  0
   -5.1894    6.0109    0.0000 C   0  0
   -6.4898    5.2631    0.0000 O   0  0
   -5.1873    7.5117    0.0000 N   0  0
   -6.4855    8.2648    0.0000 C   0  0
   -7.7846    7.5148    0.0000 C   0  0
   -9.0837    8.2649    0.0000 C   0  0
   -9.0836    9.7649    0.0000 C   0  0
  -10.3833   10.5153    0.0000 C   0  0
  -11.6836    9.7674    0.0000 C   0  0
  -12.9815   10.5195    0.0000 C   0  0
  -12.9791   12.0195    0.0000 C   0  0
  -14.2761   12.7747    0.0000 O   0  0
  -14.2715   14.2755    0.0000 C   0  0
  -15.5685   15.0307    0.0000 C   0  0
  -15.5639   16.5307    0.0000 O   0  0
  -16.8700   14.2850    0.0000 O   0  0
  -11.6788   12.7674    0.0000 C   0  0
  -10.3810   12.0153    0.0000 C   0  0
   -7.7846   10.5148    0.0000 C   0  0
   -6.4856    9.7648    0.0000 C   0  0
   -5.1865   10.5148    0.0000 Cl  0  0
   -3.8982    0.7550    0.0000 C   0  0
   -5.3191    0.8012    0.0000 C   0  0
   -4.5696   -0.4981    0.0000 C   0  0
   -1.2990   -0.7500    0.0000 C   0  0
   -2.5981   -1.5000    0.0000 Cl  0  0
    0.0000   -1.5000    0.0000 C   0  0
  1  2  1  0
  2  3  1  0
  2  4  1  0
  2  5  1  0
  5  6  2  0
  6  7  1  0
  7  8  2  0
  8  9  1  0
  9 10  1  0
 10 11  2  0
 10 12  1  0
 12 13  1  0
 13 14  1  0
 14 15  2  0
 14 16  1  0
 16 17  1  0
 17 18  2  0
 18 19  1  0
 19 20  2  0
 20 21  1  0
 21 22  2  0
 22 23  1  0
 23 24  2  0
 24 25  1  0
 25 26  1  0
 26 27  1  0
 27 28  2  0
 27 29  1  0
 24 30  1  0
 30 31  2  0
 31 21  1  0
 20 32  1  0
 32 33  2  0
 33 17  1  0
 33 34  1  0
  9 35  1  0
 35 36  1  0
 36 37  1  0
 37 35  1  0
  8 38  1  0
 38 39  1  0
 38 40  2  0
 40  5  1  0
M  END
> <Smiles>
CC(C)(C)c1ccc(N(C(=O)CCC(=O)Nc2ccc(-c3ccc(OCC(=O)O)cc3)cc2Cl)C2CC2)c(Cl)c1

> <IC50_uM>
0.506

> <pIC50>
6.295849483

> <Activity>
1

$$$$

  SciTegic10102310092D

 28 30  0  0  0  0            999 V2000
    2.5951   -3.0031    0.0000 C   0  0
    2.5973   -1.5031    0.0000 O   0  0
    1.2990   -0.7500    0.0000 C   0  0
    1.2990    0.7500    0.0000 C   0  0
    0.0000    1.5000    0.0000 C   0  0
   -1.2990    0.7500    0.0000 C   0  0
   -2.6003    1.4977    0.0000 C   0  0
   -3.8990    0.7455    0.0000 S   0  0
   -5.2003    1.4932    0.0000 C   0  0
   -6.4994    0.7432    0.0000 N   0  0
   -7.7985    1.4932    0.0000 C   0  0
   -9.0967    0.7401    0.0000 C   0  0  3  0  0  0
  -10.3977    1.4882    0.0000 C   0  0
  -11.6981    2.2359    0.0000 N   0  0
   -9.0945   -0.7608    0.0000 C   0  0
   -7.7928   -1.5063    0.0000 C   0  0
   -7.7876   -3.0063    0.0000 C   0  0
   -9.0840   -3.7608    0.0000 C   0  0
  -10.3857   -3.0154    0.0000 C   0  0
  -10.3909   -1.5154    0.0000 C   0  0
  -11.6926   -0.7699    0.0000 Cl  0  0
   -7.7985    2.9932    0.0000 C   0  0
   -9.0976    3.7432    0.0000 C   0  0
   -6.4995    3.7432    0.0000 C   0  0
   -6.4995    5.2432    0.0000 O   0  0
   -5.2004    2.9933    0.0000 N   0  0
   -1.2990   -0.7500    0.0000 C   0  0
    0.0000   -1.5000    0.0000 C   0  0
  1  2  1  0
  2  3  1  0
  3  4  2  0
  4  5  1  0
  5  6  2  0
  6  7  1  0
  7  8  1  0
  8  9  1  0
  9 10  2  0
 10 11  1  0
 11 12  1  0
 12 13  1  4
 13 14  3  0
 12 15  1  0
 15 16  2  0
 16 17  1  0
 17 18  2  0
 18 19  1  0
 19 20  2  0
 20 15  1  0
 20 21  1  0
 11 22  2  0
 22 23  1  0
 22 24  1  0
 24 25  2  0
 24 26  1  0
 26  9  1  0
  6 27  1  0
 27 28  2  0
 28  3  1  0
M  END
> <Smiles>
COc1ccc(CSc2nc(C(C#N)c3ccccc3Cl)c(C)c(=O)[nH]2)cc1

> <IC50_uM>
0.51

> <pIC50>
6.292429824

> <Activity>
1

$$$$

  SciTegic10102310092D

  8  8  0  0  0  0            999 V2000
    3.1476   -0.7184    0.0000 S   0  0
    1.6852   -0.3846    0.0000 C   0  0
    1.3514    1.0778    0.0000 N   0  0
    0.0000    1.7286    0.0000 C   0  0
   -1.3515    1.0777    0.0000 C   0  0
   -1.6852   -0.3847    0.0000 C   0  0
   -0.7500   -1.5574    0.0000 C   0  0
    0.7500   -1.5574    0.0000 C   0  0
  1  2  2  0
  2  3  1  0
  3  4  1  0
  4  5  1  0
  5  6  1  0
  6  7  1  0
  7  8  1  0
  8  2  1  0
M  END
> <Smiles>
S=C1NCCCCC1

> <IC50_uM>
0.512861384

> <pIC50>
6.29

> <Activity>
1

$$$$

  SciTegic10102310092D

  9  8  0  0  0  0            999 V2000
    6.5000    2.2500    0.0000 C   0  0
    6.5000    0.7500    0.0000 C   0  0
    5.2000    0.0000    0.0000 C   0  0
    3.9000    0.7500    0.0000 N   0  0
    2.6000    0.0000    0.0000 C   0  0
    1.3000    0.7500    0.0000 C   0  0
    0.0007    0.0004    0.0000 C   0  0
    5.2000   -1.5000    0.0000 N   0  0
    7.7992    0.0004    0.0000 O   0  0
  1  2  1  0
  2  3  1  0
  3  4  1  0
  4  5  1  0
  5  6  1  0
  6  7  1  0
  3  8  2  0
  2  9  2  0
M  END
> <Smiles>
CC(C(NCCC)=N)=O

> <IC50_uM>
0.512861384

> <pIC50>
6.29

> <Activity>
1

$$$$

  SciTegic10102310092D

 36 39  0  0  0  0            999 V2000
    2.5981   -1.5000    0.0000 C   0  0
    1.2990   -0.7500    0.0000 C   0  0
    1.2990    0.7500    0.0000 C   0  0
    0.0000    1.5000    0.0000 C   0  0
    0.0000    3.0008    0.0000 C   0  0
    0.0000    4.5008    0.0000 N   0  0
   -1.2990    0.7500    0.0000 C   0  0
   -1.2990   -0.7500    0.0000 C   0  0
   -2.5981   -1.5000    0.0000 C   0  0
    0.0000   -1.5000    0.0000 C   0  0
    0.0031   -3.0008    0.0000 O   0  0
    1.3039   -3.7494    0.0000 C   0  0
    2.6005   -2.9949    0.0000 N   0  0
    3.9021   -3.7404    0.0000 C   0  0
    5.2008   -2.9882    0.0000 N   0  0
    6.5021   -3.7360    0.0000 C   0  0
    7.8012   -2.9860    0.0000 C   0  0
    9.1002   -3.7360    0.0000 C   0  0
    9.1002   -5.2360    0.0000 N   0  0
   10.3984   -5.9891    0.0000 C   0  0
   10.3963   -7.4900    0.0000 C   0  0
    9.0946   -8.2356    0.0000 C   0  0
    9.0894   -9.7355    0.0000 C   0  0
   10.3859  -10.4900    0.0000 C   0  0
   10.3838  -11.9909    0.0000 C   0  0
    9.0835  -12.7386    0.0000 N   0  0
   11.6813  -12.7435    0.0000 O   0  0
   11.6875   -9.7445    0.0000 C   0  0
   11.6927   -8.2445    0.0000 C   0  0
   12.9943   -7.4991    0.0000 Cl  0  0
    7.8012   -5.9860    0.0000 C   0  0
    6.5021   -5.2360    0.0000 C   0  0
    3.9073   -5.2404    0.0000 N   0  0
    2.6108   -5.9949    0.0000 C   0  0
    1.3092   -5.2494    0.0000 C   0  0
    0.0128   -6.0039    0.0000 Br  0  0
  1  2  1  0
  2  3  2  0
  3  4  1  0
  4  5  1  0
  5  6  3  0
  4  7  2  0
  7  8  1  0
  8  9  1  0
  8 10  2  0
 10  2  1  0
 10 11  1  0
 11 12  1  0
 12 13  2  0
 13 14  1  0
 14 15  1  0
 15 16  1  0
 16 17  1  0
 17 18  1  0
 18 19  1  0
 19 20  1  0
 20 21  1  0
 21 22  2  0
 22 23  1  0
 23 24  2  0
 24 25  1  0
 25 26  1  0
 25 27  2  0
 24 28  1  0
 28 29  2  0
 29 21  1  0
 29 30  1  0
 19 31  1  0
 31 32  1  0
 32 16  1  0
 14 33  2  0
 33 34  1  0
 34 35  2  0
 35 12  1  0
 35 36  1  0
M  END
> <Smiles>
Cc1cc(C#N)cc(C)c1Oc1nc(NC2CCN(Cc3ccc(C(N)=O)cc3Cl)CC2)ncc1Br

> <IC50_uM>
0.519

> <pIC50>
6.284832642

> <Activity>
1

$$$$

  SciTegic10102310092D

 31 32  0  0  0  0            999 V2000
    2.5981   -1.5000    0.0000 C   0  0
    1.2990   -0.7500    0.0000 C   0  0
    1.2990    0.7500    0.0000 C   0  0
    0.0000    1.5000    0.0000 N   0  0
    0.0000    3.0008    0.0000 C   0  0  3  0  0  0
    1.2121    3.8625    0.0000 C   0  0
    0.7463    5.2884    0.0000 C   0  0  3  0  0  0
    1.6261    6.5033    0.0000 O   0  0
   -0.7537    5.2860    0.0000 C   0  0  3  0  0  0
   -0.1292    6.6364    0.0000 C   0  0
    0.4789    8.0077    0.0000 N   0  0
   -2.2300    5.1045    0.0000 C   0  0
   -2.8388    3.7327    0.0000 O   0  0
   -4.3312    3.5731    0.0000 P   0  0
   -3.7233    4.9444    0.0000 O   0  0
   -5.2147    4.7853    0.0000 O   0  0
   -4.9400    2.2013    0.0000 O   0  0
   -6.4323    2.0417    0.0000 P   0  0
   -5.8245    3.4130    0.0000 O   0  0
   -7.3158    3.2539    0.0000 O   0  0
   -7.0411    0.6699    0.0000 O   0  0
   -8.5334    0.5103    0.0000 P   0  0
   -9.1419   -0.8607    0.0000 O   0  0
  -10.0250    0.3515    0.0000 O   0  0
   -9.4169    1.7225    0.0000 O   0  0
   -1.2149    3.8587    0.0000 C   0  0
   -1.2990    0.7500    0.0000 C   0  0
   -2.5981    1.5000    0.0000 O   0  0
   -1.2990   -0.7500    0.0000 N   0  0
    0.0000   -1.5000    0.0000 C   0  0
    0.0000   -3.0000    0.0000 O   0  0
  1  2  1  0
  2  3  2  0
  3  4  1  0
  5  4  1  4
  5  6  1  0
  6  7  1  0
  7  8  1  4
  7  9  1  0
  9 10  1  4
 10 11  3  0
  9 12  1  0
 12 13  1  0
 13 14  1  0
 14 15  2  0
 14 16  1  0
 14 17  1  0
 17 18  1  0
 18 19  2  0
 18 20  1  0
 18 21  1  0
 21 22  1  0
 22 23  2  0
 22 24  1  0
 22 25  1  0
  9 26  1  0
 26  5  1  0
  4 27  1  0
 27 28  2  0
 27 29  1  0
 29 30  1  0
 30  2  1  0
 30 31  2  0
M  END
> <Smiles>
Cc1cn(C2CC(O)C(C#N)(COP(=O)(O)OP(=O)(O)OP(=O)(O)O)C2)c(=O)[nH]c1=O

> <IC50_uM>
0.523

> <pIC50>
6.281498311

> <Activity>
1

$$$$

  SciTegic10102310092D

  8  8  0  0  0  0            999 V2000
    2.5981   -1.5000    0.0000 O   0  0
    1.2990   -0.7500    0.0000 C   0  0
    1.2990    0.7500    0.0000 C   0  0
    0.0000    1.5000    0.0000 S   0  0
   -1.2990    0.7500    0.0000 C   0  0
   -1.2990   -0.7500    0.0000 C   0  0
   -2.5981   -1.5000    0.0000 O   0  0
    0.0000   -1.5000    0.0000 O   0  0
  1  2  2  0
  2  3  1  0
  3  4  1  0
  4  5  1  0
  5  6  1  0
  6  7  2  0
  6  8  1  0
  8  2  1  0
M  END
> <Smiles>
O=C1CSCC(=O)O1

> <IC50_uM>
0.52480746

> <pIC50>
6.28

> <Activity>
1

$$$$

  SciTegic10102310092D

  8  9  0  0  0  0            999 V2000
    0.7500   -1.0323    0.0000 C   0  0  3  0  0  0
    1.2135    0.3943    0.0000 N   0  0  3  0  0  0
    0.0000    1.2760    0.0000 C   0  0
   -1.2135    0.3943    0.0000 O   0  0
   -0.7500   -1.0323    0.0000 C   0  0
    2.7115    0.3950    0.0000 C   0  0
    3.1750   -1.0316    0.0000 S   0  0
    1.9615   -1.9133    0.0000 C   0  0
  1  2  1  0
  2  3  1  4
  3  4  1  0
  4  5  1  0
  1  5  1  4
  2  6  1  0
  6  7  1  0
  7  8  1  0
  8  1  1  0
M  END
> <Smiles>
C12N(COC1)CSC2

> <IC50_uM>
0.52480746

> <pIC50>
6.28

> <Activity>
1

$$$$

  SciTegic10102310092D

  9  8  0  0  0  0            999 V2000
    2.6000    0.0000    0.0000 C   0  0
    2.6000   -1.5000    0.0000 O   0  0
    1.3000    0.7500    0.0000 O   0  0
    0.0007    0.0004    0.0000 C   0  0
    3.9000    0.7500    0.0000 C   0  0
    5.2000    0.0000    0.0000 O   0  0
    6.5000    0.7500    0.0000 C   0  0
    7.7999    0.0000    0.0000 C   0  0
    9.0992    0.7496    0.0000 C   0  0
  1  2  2  0
  1  3  1  0
  3  4  1  0
  1  5  1  0
  5  6  1  0
  6  7  1  0
  7  8  1  0
  8  9  1  0
M  END
> <Smiles>
C(=O)(OC)COCCC

> <IC50_uM>
0.52480746

> <pIC50>
6.28

> <Activity>
1

$$$$

  SciTegic10102310092D

 35 38  0  0  0  0            999 V2000
    3.1676   -7.5606    0.0000 C   0  0
    1.7006   -7.2475    0.0000 C   0  0
    0.6960   -8.3614    0.0000 C   0  0
   -0.7710   -8.0483    0.0000 C   0  0
   -1.7756   -9.1622    0.0000 C   0  0
   -1.2333   -6.6213    0.0000 C   0  0
   -0.2287   -5.5075    0.0000 C   0  0
   -0.6913   -4.0797    0.0000 S   0  0
   -2.1584   -3.7671    0.0000 O   0  0
   -1.6957   -5.1937    0.0000 O   0  0
    0.3114   -2.9665    0.0000 C   0  0
    1.8032   -3.1233    0.0000 C   0  0
    2.5551   -4.4192    0.0000 C   0  0
    1.8074   -5.7196    0.0000 O   0  0
    4.0559   -4.4171    0.0000 N   0  0
    4.8090   -5.7153    0.0000 C   0  0
    6.3098   -5.7131    0.0000 C   0  0
    7.0575   -4.4127    0.0000 O   0  0
    7.0629   -7.0113    0.0000 N   0  0
    8.5638   -7.0091    0.0000 C   0  0
    9.3169   -8.3073    0.0000 C   0  0
   10.8169   -8.3073    0.0000 C   0  0
   11.5670   -9.6063    0.0000 C   0  0
   10.8170  -10.9054    0.0000 N   0  0
    9.3170  -10.9055    0.0000 C   0  0
    8.5670   -9.6065    0.0000 N   0  0
    2.4133   -1.7530    0.0000 N   0  0
    1.2990   -0.7500    0.0000 C   0  0
    1.2990    0.7500    0.0000 C   0  0
    0.0000    1.5000    0.0000 C   0  0
   -1.2990    0.7500    0.0000 C   0  0
   -2.5981    1.5000    0.0000 Cl  0  0
   -1.2990   -0.7500    0.0000 C   0  0
    0.0000   -1.5000    0.0000 C   0  0
    1.2383   -5.8206    0.0000 C   0  0
  1  2  1  0
  2  3  2  0
  3  4  1  0
  4  5  1  0
  4  6  2  0
  6  7  1  0
  7  8  1  0
  8  9  2  0
  8 10  2  0
  8 11  1  0
 11 12  2  0
 12 13  1  0
 13 14  2  0
 13 15  1  0
 15 16  1  0
 16 17  1  0
 17 18  2  0
 17 19  1  0
 19 20  1  0
 20 21  1  0
 21 22  2  0
 22 23  1  0
 23 24  2  0
 24 25  1  0
 25 26  2  0
 26 21  1  0
 12 27  1  0
 27 28  1  0
 28 29  2  0
 29 30  1  0
 30 31  2  0
 31 32  1  0
 31 33  1  0
 33 34  2  0
 34 11  1  0
 34 28  1  0
  7 35  2  0
 35  2  1  0
M  END
> <Smiles>
Cc1cc(C)cc(S(=O)(=O)c2c(C(=O)NCC(=O)NCc3ccncn3)[nH]c3ccc(Cl)cc23)c1

> <IC50_uM>
0.529

> <pIC50>
6.276544328

> <Activity>
1

$$$$

  SciTegic10102310092D

 25 27  0  0  0  0            999 V2000
    2.5951   -3.0031    0.0000 C   0  0
    2.5973   -1.5031    0.0000 O   0  0
    1.2990   -0.7500    0.0000 C   0  0
    1.2990    0.7500    0.0000 C   0  0
    0.0000    1.5000    0.0000 C   0  0
   -1.2990    0.7500    0.0000 C   0  0
   -2.5987    1.5004    0.0000 C   0  0
   -2.6012    3.0004    0.0000 C   0  0
   -3.9015    3.7484    0.0000 C   0  0
   -5.1993    2.9963    0.0000 C   0  0
   -6.5018    3.7420    0.0000 C   0  0
   -6.5068    5.2419    0.0000 O   0  0
   -7.7993    2.9876    0.0000 C   0  0
   -9.1021    3.7310    0.0000 C   0  0
  -10.3974    2.9744    0.0000 C   0  0
  -11.7002    3.7179    0.0000 O   0  0
  -10.3898    1.4745    0.0000 N   0  0
  -11.6850    0.7179    0.0000 O   0  0
   -9.0870    0.7310    0.0000 C   0  0
   -9.0794   -0.7689    0.0000 O   0  0
   -7.7918    1.4876    0.0000 N   0  0
   -5.1969    1.4963    0.0000 C   0  0
   -3.8967    0.7484    0.0000 C   0  0
   -1.2990   -0.7500    0.0000 C   0  0
    0.0000   -1.5000    0.0000 C   0  0
  1  2  1  0
  2  3  1  0
  3  4  2  0
  4  5  1  0
  5  6  2  0
  6  7  1  0
  7  8  2  0
  8  9  1  0
  9 10  2  0
 10 11  1  0
 11 12  2  0
 11 13  1  0
 13 14  2  0
 14 15  1  0
 15 16  2  0
 15 17  1  0
 17 18  1  0
 17 19  1  0
 19 20  2  0
 19 21  1  0
 21 13  1  0
 10 22  1  0
 22 23  2  0
 23  7  1  0
  6 24  1  0
 24 25  2  0
 25  3  1  0
M  END
> <Smiles>
COc1ccc(-c2ccc(C(=O)c3cc(=O)n(O)c(=O)[nH]3)cc2)cc1

> <IC50_uM>
0.53

> <pIC50>
6.27572413

> <Activity>
1

$$$$

  SciTegic10102310092D

 10 10  0  0  0  0            999 V2000
    2.5973   -1.5031    0.0000 N   0  0
    1.2990   -0.7500    0.0000 C   0  0
    1.2990    0.7500    0.0000 C   0  0
    0.0000    1.5000    0.0000 C   0  0
   -1.2990    0.7500    0.0000 C   0  0
   -1.2990   -0.7500    0.0000 C   0  0
    0.0000   -1.5000    0.0000 C   0  0
    2.5951   -3.0039    0.0000 C   0  0
    3.8926   -3.7566    0.0000 O   0  0
    1.2948   -3.7516    0.0000 C   0  0
  1  2  1  0
  2  3  2  0
  3  4  1  0
  4  5  2  0
  5  6  1  0
  6  7  2  0
  7  2  1  0
  1  8  1  0
  8  9  2  0
  8 10  1  0
M  END
> <Smiles>
N(c1ccccc1)C(=O)C

> <IC50_uM>
0.537031796

> <pIC50>
6.27

> <Activity>
1

$$$$

  SciTegic10102310092D

 10 11  0  0  0  0            999 V2000
    3.8574   -1.8106    0.0000 O   0  0
    2.7967   -0.7500    0.0000 C   0  0
    1.2990   -0.7500    0.0000 C   0  0
    1.2990    0.7500    0.0000 C   0  0
    0.0000    1.5000    0.0000 C   0  0
   -1.2990    0.7500    0.0000 C   0  0
   -1.2990   -0.7500    0.0000 C   0  0
    0.0000   -1.5000    0.0000 C   0  0
    2.7967    0.7500    0.0000 C   0  0
    3.8573    1.8107    0.0000 O   0  0
  1  2  1  0
  2  3  2  0
  3  4  1  0
  4  5  1  0
  5  6  2  0
  6  7  1  0
  7  8  2  0
  8  3  1  0
  4  9  2  0
  9  2  1  0
  9 10  1  0
M  END
> <Smiles>
OC1=C2C(C=CC=C2)=C1O

> <IC50_uM>
0.537031796

> <pIC50>
6.27

> <Activity>
1

$$$$

  SciTegic10102310092D

 10 11  0  0  0  0            999 V2000
    2.5532   -4.4223    0.0000 N   0  0
    1.8032   -3.1233    0.0000 N   0  0
    2.4133   -1.7530    0.0000 N   0  0
    1.2990   -0.7500    0.0000 C   0  0
    1.2990    0.7500    0.0000 C   0  0
    0.0000    1.5000    0.0000 C   0  0
   -1.2990    0.7500    0.0000 C   0  0
   -1.2990   -0.7500    0.0000 C   0  0
    0.0000   -1.5000    0.0000 C   0  0
    0.3114   -2.9665    0.0000 N   0  0
  1  2  1  0
  2  3  1  0
  3  4  2  0
  4  5  1  0
  5  6  2  0
  6  7  1  0
  7  8  2  0
  4  9  1  0
  9  8  1  0
  9 10  2  0
 10  2  1  0
M  END
> <Smiles>
Nn1nc(cccc2)c2n1

> <IC50_uM>
0.537031796

> <pIC50>
6.27

> <Activity>
1

$$$$

  SciTegic10102310092D

 10 11  0  0  0  0            999 V2000
    2.5981   -1.5000    0.0000 C   0  0
    1.2990   -0.7500    0.0000 C   0  0
    1.2990    0.7500    0.0000 C   0  0
    0.0000    1.5000    0.0000 C   0  0
   -1.2990    0.7500    0.0000 N   0  0
   -1.2990   -0.7500    0.0000 C   0  0
   -2.4133   -1.7530    0.0000 N   0  0
   -1.8032   -3.1233    0.0000 N   0  0
   -0.3114   -2.9665    0.0000 N   0  0
    0.0000   -1.5000    0.0000 C   0  0
  1  2  1  0
  2  3  2  0
  3  4  1  0
  4  5  2  0
  5  6  1  0
  6  7  1  0
  7  8  1  0
  8  9  2  0
  6 10  2  0
 10  2  1  0
 10  9  1  0
M  END
> <Smiles>
Cc1ccnc([nH]nn2)c12

> <IC50_uM>
0.537031796

> <pIC50>
6.27

> <Activity>
1

$$$$

  SciTegic10102310092D

 10 11  0  0  0  0            999 V2000
   -0.6923   -4.0811    0.0000 O   0  0
    0.3114   -2.9665    0.0000 C   0  0
    1.8032   -3.1233    0.0000 O   0  0
    2.4133   -1.7530    0.0000 C   0  0
    1.2990   -0.7500    0.0000 C   0  0
    1.2990    0.7500    0.0000 C   0  0
    0.0000    1.5000    0.0000 N   0  0
   -1.2990    0.7500    0.0000 C   0  0
   -1.2990   -0.7500    0.0000 C   0  0
    0.0000   -1.5000    0.0000 C   0  0
  1  2  2  0
  2  3  1  0
  3  4  1  0
  4  5  1  0
  5  6  2  0
  6  7  1  0
  7  8  2  0
  8  9  1  0
  5 10  1  0
 10  2  1  0
 10  9  2  0
M  END
> <Smiles>
O=C1OCc(cncc2)c12

> <IC50_uM>
0.537031796

> <pIC50>
6.27

> <Activity>
1

$$$$

  SciTegic10102310092D

 30 31  0  0  0  0            999 V2000
    6.4851   -9.7648    0.0000 C   0  0
    6.4868   -8.2648    0.0000 O   0  0
    5.1884   -7.5121    0.0000 C   0  0
    3.8883   -8.2602    0.0000 O   0  0
    5.1901   -6.0113    0.0000 C   0  0
    3.8917   -5.2586    0.0000 C   0  0
    3.8934   -3.7577    0.0000 C   0  0
    2.5949   -3.0050    0.0000 C   0  0
    2.5966   -1.5042    0.0000 C   0  0
    3.8959   -0.7529    0.0000 C   0  0
    3.8993    0.7471    0.0000 C   0  0
    5.2001    1.4941    0.0000 C   0  0
    6.4974    0.7412    0.0000 C   0  0
    6.4940   -0.7588    0.0000 C   0  0
    7.7921   -1.5122    0.0000 C   0  0
    9.0894   -2.2651    0.0000 N   0  0
    5.1933   -1.5059    0.0000 C   0  0
    1.2959   -0.7553    0.0000 C   0  0
    1.2941    0.7449    0.0000 C   0  0
   -0.0058    1.4934    0.0000 C   0  0
   -0.0075    2.9934    0.0000 C   0  0
   -1.3040    0.7419    0.0000 C   0  0
   -2.6061    1.4882    0.0000 O   0  0
   -3.9032    0.7349    0.0000 C   0  0
   -1.3023   -0.7581    0.0000 C   0  0
   -2.5996   -1.5126    0.0000 C   0  0
   -3.9008   -0.7664    0.0000 O   0  0
   -2.5958   -3.0134    0.0000 O   0  0
   -3.8924   -3.7676    0.0000 C   0  0
   -0.0024   -1.5066    0.0000 C   0  0
  1  2  1  0
  2  3  1  0
  3  4  2  0
  3  5  1  0
  5  6  1  0
  6  7  1  0
  7  8  1  0
  8  9  2  0
  9 10  1  0
 10 11  2  0
 11 12  1  0
 12 13  2  0
 13 14  1  0
 14 15  1  0
 15 16  3  0
 14 17  2  0
 17 10  1  0
  9 18  1  0
 18 19  2  0
 19 20  1  0
 20 21  1  0
 20 22  2  0
 22 23  1  0
 23 24  1  0
 22 25  1  0
 25 26  1  0
 26 27  2  0
 26 28  1  0
 28 29  1  0
 25 30  2  0
 30 18  1  0
M  END
> <Smiles>
COC(=O)CCC/C=C(\c1cccc(C#N)c1)c1cc(C)c(OC)c(C(=O)OC)c1

> <IC50_uM>
0.54

> <pIC50>
6.26760624

> <Activity>
1

$$$$

  SciTegic10102310092D

 25 27  0  0  0  0            999 V2000
    3.9075   -3.7444    0.0000 C   0  0
    2.6060   -2.9986    0.0000 O   0  0
    2.6003   -1.4977    0.0000 C   0  0  3  0  0  0
    1.2990   -0.7500    0.0000 C   0  0
    1.2990    0.7500    0.0000 N   0  0
    0.0000    1.5000    0.0000 C   0  0
   -0.0031    3.0008    0.0000 N   0  0
   -1.3039    3.7494    0.0000 C   0  0
   -1.4470    5.2297    0.0000 C   0  0
   -2.9153    5.5365    0.0000 C   0  0
   -3.6607    4.2349    0.0000 C   0  0
   -2.6532    3.1236    0.0000 C   0  0
   -1.2990    0.7500    0.0000 N   0  0
   -1.2990   -0.7500    0.0000 C   0  0
   -2.5981   -1.5000    0.0000 O   0  0
    0.0000   -1.5000    0.0000 C   0  0
    0.0000   -3.0000    0.0000 C   0  0
    3.8990   -0.7455    0.0000 C   0  0
    5.2007   -1.4909    0.0000 C   0  0
    5.2060   -2.9909    0.0000 Cl  0  0
    6.4972   -0.7364    0.0000 C   0  0
    6.4920    0.7636    0.0000 C   0  0
    5.1903    1.5091    0.0000 C   0  0
    3.8939    0.7546    0.0000 C   0  0
    2.5923    1.5001    0.0000 Cl  0  0
  1  2  1  0
  3  2  1  4
  3  4  1  0
  4  5  1  0
  5  6  2  0
  6  7  1  0
  7  8  1  0
  8  9  1  0
  9 10  1  0
 10 11  1  0
 11 12  1  0
 12  8  1  0
  6 13  1  0
 13 14  1  0
 14 15  2  0
 14 16  1  0
 16  4  2  0
 16 17  1  0
  3 18  1  0
 18 19  2  0
 19 20  1  0
 19 21  1  0
 21 22  2  0
 22 23  1  0
 23 24  2  0
 24 18  1  0
 24 25  1  0
M  END
> <Smiles>
COC(c1nc(NC2CCCC2)[nH]c(=O)c1C)c1c(Cl)cccc1Cl

> <IC50_uM>
0.54

> <pIC50>
6.26760624

> <Activity>
1

$$$$

  SciTegic10102310092D

 23 24  0  0  0  0            999 V2000
    3.8912   -5.2570    0.0000 C   0  0
    3.8933   -3.7570    0.0000 C   0  0
    2.5951   -3.0039    0.0000 C   0  0
    2.5973   -1.5031    0.0000 N   0  0
    1.2990   -0.7500    0.0000 C   0  0
    1.2990    0.7500    0.0000 N   0  0
    0.0000    1.5000    0.0000 C   0  0
    0.0031    3.0008    0.0000 C   0  0  3  0  0  0
   -1.2938    3.7562    0.0000 O   0  0
   -1.2891    5.2562    0.0000 C   0  0
    1.3039    3.7494    0.0000 C   0  0
    1.3092    5.2494    0.0000 C   0  0
    0.0127    6.0039    0.0000 F   0  0
    2.6108    5.9949    0.0000 C   0  0
    3.9072    5.2405    0.0000 C   0  0
    3.9020    3.7405    0.0000 C   0  0
    2.6004    2.9949    0.0000 C   0  0
    2.5953    1.4950    0.0000 Cl  0  0
   -1.2990    0.7500    0.0000 C   0  0
   -2.5981    1.5000    0.0000 C   0  0
   -1.2990   -0.7500    0.0000 C   0  0
   -2.5981   -1.5000    0.0000 O   0  0
    0.0000   -1.5000    0.0000 N   0  0
  1  2  1  0
  2  3  1  0
  3  4  1  0
  4  5  1  0
  5  6  2  0
  6  7  1  0
  7  8  1  0
  8  9  1  4
  9 10  1  0
  8 11  1  0
 11 12  2  0
 12 13  1  0
 12 14  1  0
 14 15  2  0
 15 16  1  0
 16 17  2  0
 17 11  1  0
 17 18  1  0
  7 19  2  0
 19 20  1  0
 19 21  1  0
 21 22  2  0
 21 23  1  0
 23  5  1  0
M  END
> <Smiles>
CCCNc1nc(C(OC)c2c(F)cccc2Cl)c(C)c(=O)[nH]1

> <IC50_uM>
0.54

> <pIC50>
6.26760624

> <Activity>
1

$$$$

  SciTegic10102310092D

 32 35  0  0  0  0            999 V2000
    3.1676   -7.5606    0.0000 C   0  0
    1.7006   -7.2475    0.0000 C   0  0
    0.6960   -8.3614    0.0000 C   0  0
   -0.7710   -8.0483    0.0000 C   0  0
   -1.7756   -9.1622    0.0000 C   0  0
   -1.2333   -6.6213    0.0000 C   0  0
   -0.2287   -5.5075    0.0000 C   0  0
   -0.6913   -4.0797    0.0000 S   0  0
   -2.1584   -3.7671    0.0000 O   0  0
   -1.6957   -5.1937    0.0000 O   0  0
    0.3114   -2.9665    0.0000 C   0  0
    1.8032   -3.1233    0.0000 C   0  0
    2.5551   -4.4192    0.0000 C   0  0
    1.8074   -5.7196    0.0000 O   0  0
    4.0559   -4.4171    0.0000 N   0  0
    4.8090   -5.7153    0.0000 C   0  0  3  0  0  0
    4.0613   -7.0156    0.0000 C   0  0
    6.3098   -5.7131    0.0000 C   0  0
    7.0644   -7.0095    0.0000 C   0  0
    8.5644   -7.0043    0.0000 C   0  0
    9.3099   -5.7026    0.0000 C   0  0
    8.5554   -4.4062    0.0000 C   0  0
    7.0554   -4.4114    0.0000 C   0  0
    2.4133   -1.7530    0.0000 N   0  0
    1.2990   -0.7500    0.0000 C   0  0
    1.2990    0.7500    0.0000 C   0  0
    0.0000    1.5000    0.0000 C   0  0
   -1.2990    0.7500    0.0000 C   0  0
   -2.5981    1.5000    0.0000 Cl  0  0
   -1.2990   -0.7500    0.0000 C   0  0
    0.0000   -1.5000    0.0000 C   0  0
    1.2383   -5.8206    0.0000 C   0  0
  1  2  1  0
  2  3  2  0
  3  4  1  0
  4  5  1  0
  4  6  2  0
  6  7  1  0
  7  8  1  0
  8  9  2  0
  8 10  2  0
  8 11  1  0
 11 12  2  0
 12 13  1  0
 13 14  2  0
 13 15  1  0
 15 16  1  0
 16 17  1  4
 16 18  1  0
 18 19  2  0
 19 20  1  0
 20 21  2  0
 21 22  1  0
 22 23  2  0
 23 18  1  0
 12 24  1  0
 24 25  1  0
 25 26  2  0
 26 27  1  0
 27 28  2  0
 28 29  1  0
 28 30  1  0
 30 31  2  0
 31 11  1  0
 31 25  1  0
  7 32  2  0
 32  2  1  0
M  END
> <Smiles>
Cc1cc(C)cc(S(=O)(=O)c2c(C(=O)NC(C)c3ccccc3)[nH]c3ccc(Cl)cc23)c1

> <IC50_uM>
0.54

> <pIC50>
6.26760624

> <Activity>
1

$$$$

  SciTegic10102310092D

 24 26  0  0  1  0            999 V2000
    2.1651   -1.2500    0.0000 C   0  0
    1.2990   -0.7500    0.0000 C   0  0
    1.2990    0.7500    0.0000 C   0  0
    2.5978    1.5022    0.0000 C   0  0  1  0  0  0
    2.5953    3.0022    0.0000 C   0  0
    3.8990    0.7544    0.0000 C   0  0
    5.1982    1.5042    0.0000 C   0  0
    5.1983    3.0042    0.0000 F   0  0
    6.4972    0.7542    0.0000 C   0  0
    6.4971   -0.7458    0.0000 C   0  0
    5.1980   -1.4958    0.0000 C   0  0
    3.8990   -0.7457    0.0000 C   0  0
    3.0330   -1.2457    0.0000 F   0  0
    0.0000    1.5000    0.0000 N   0  0
   -1.2990    0.7500    0.0000 C   0  0
   -2.6003    1.4977    0.0000 S   0  0
   -3.8990    0.7455    0.0000 C   0  0
   -5.2526    1.3618    0.0000 C   0  0
   -6.2524    0.2436    0.0000 C   0  0
   -5.4979   -1.0529    0.0000 C   0  0
   -4.0317   -0.7359    0.0000 C   0  0
   -1.2990   -0.7500    0.0000 N   0  0
    0.0000   -1.5000    0.0000 C   0  0
    0.0000   -3.0000    0.0000 O   0  0
  1  2  1  0
  2  3  2  0
  3  4  1  0
  4  5  1  1
  4  6  1  0
  6  7  2  0
  7  8  1  0
  7  9  1  0
  9 10  2  0
 10 11  1  0
 11 12  2  0
 12  6  1  0
 12 13  1  0
  3 14  1  0
 14 15  2  0
 15 16  1  0
 16 17  1  0
 17 18  1  0
 18 19  1  0
 19 20  1  0
 20 21  1  0
 21 17  1  0
 15 22  1  0
 22 23  1  0
 23  2  1  0
 23 24  2  0
M  END
> <Smiles>
Cc1c([C@@H](C)c2c(F)cccc2F)nc(SC2CCCC2)[nH]c1=O

> <IC50_uM>
0.54

> <pIC50>
6.26760624

> <Activity>
1

$$$$

  SciTegic10102310092D

 47 52  0  0  0  0            999 V2000
    2.5923    1.5001    0.0000 C   0  0
    3.8939    0.7546    0.0000 C   0  0
    5.1903    1.5091    0.0000 C   0  0
    6.4920    0.7636    0.0000 C   0  0
    7.7891    1.5185    0.0000 C   0  0
    9.0856    2.2729    0.0000 N   0  0
    6.4972   -0.7364    0.0000 C   0  0
    5.2007   -1.4909    0.0000 C   0  0
    5.2059   -2.9909    0.0000 C   0  0
    3.8990   -0.7455    0.0000 C   0  0
    2.6003   -1.4977    0.0000 O   0  0
    1.2990   -0.7500    0.0000 C   0  0
    1.2990    0.7500    0.0000 N   0  0
    0.0000    1.5000    0.0000 C   0  0
   -0.0031    3.0008    0.0000 N   0  0
   -1.3039    3.7494    0.0000 C   0  0
   -1.3092    5.2494    0.0000 C   0  0
   -2.6108    5.9949    0.0000 C   0  0
   -3.9073    5.2404    0.0000 N   0  0
   -5.2112    5.9836    0.0000 C   0  0
   -6.5072    5.2269    0.0000 C   0  0
   -7.8115    5.9678    0.0000 C   0  0
   -9.1053    5.2088    0.0000 C   0  0
   -9.0949    3.7089    0.0000 C   0  0
  -10.3895    2.9495    0.0000 S   0  0
  -10.3786    1.4495    0.0000 C   0  0
  -11.6941    3.6896    0.0000 O   0  0
  -11.6829    2.1899    0.0000 O   0  0
   -7.7907    2.9679    0.0000 C   0  0
   -6.4969    3.7269    0.0000 C   0  0
   -3.9021    3.7404    0.0000 C   0  0
   -2.6005    2.9949    0.0000 C   0  0
   -1.2990    0.7500    0.0000 N   0  0
   -1.2990   -0.7500    0.0000 C   0  0
   -2.4133   -1.7530    0.0000 C   0  0
   -1.8032   -3.1233    0.0000 C   0  0
   -0.3114   -2.9665    0.0000 N   0  0
    0.6890   -4.0818    0.0000 C   0  0
    0.2235   -5.5086    0.0000 O   0  0
    1.2256   -6.6258    0.0000 C   0  0
    0.7601   -8.0526    0.0000 C   0  0
    1.7601   -9.1707    0.0000 C   0  0
    1.2919  -10.5957    0.0000 C   0  0
   -0.1764  -10.9028    0.0000 C   0  0
   -1.1764   -9.7848    0.0000 C   0  0
   -0.7082   -8.3597    0.0000 C   0  0
    0.0000   -1.5000    0.0000 C   0  0
  1  2  1  0
  2  3  2  0
  3  4  1  0
  4  5  1  0
  5  6  3  0
  4  7  2  0
  7  8  1  0
  8  9  1  0
  8 10  2  0
 10  2  1  0
 10 11  1  0
 11 12  1  0
 12 13  2  0
 13 14  1  0
 14 15  1  0
 15 16  1  0
 16 17  1  0
 17 18  1  0
 18 19  1  0
 19 20  1  0
 20 21  1  0
 21 22  2  0
 22 23  1  0
 23 24  2  0
 24 25  1  0
 25 26  1  0
 25 27  2  0
 25 28  2  0
 24 29  1  0
 29 30  2  0
 30 21  1  0
 19 31  1  0
 31 32  1  0
 32 16  1  0
 14 33  2  0
 33 34  1  0
 34 35  1  0
 35 36  2  0
 36 37  1  0
 37 38  1  0
 38 39  1  0
 39 40  1  0
 40 41  1  0
 41 42  2  0
 42 43  1  0
 43 44  2  0
 44 45  1  0
 45 46  2  0
 46 41  1  0
 37 47  1  0
 47 12  1  0
 47 34  2  0
M  END
> <Smiles>
Cc1cc(C#N)cc(C)c1Oc1nc(NC2CCN(Cc3ccc(S(C)(=O)=O)cc3)CC2)nc2ccn(COCc3ccccc3)c12

> <IC50_uM>
0.547

> <pIC50>
6.262012674

> <Activity>
1

$$$$

  SciTegic10102310092D

 36 39  0  0  0  0            999 V2000
    2.5981   -1.5000    0.0000 C   0  0
    1.2990   -0.7500    0.0000 C   0  0
    1.2990    0.7500    0.0000 C   0  0
    0.0000    1.5000    0.0000 C   0  0
   -1.2990    0.7500    0.0000 C   0  0
   -2.5987    1.5004    0.0000 N   0  0
   -2.7390    2.9810    0.0000 C   0  0
   -1.6199    3.9799    0.0000 C   0  0
   -4.2067    3.2905    0.0000 C   0  0
   -4.9546    1.9903    0.0000 N   0  0
   -3.9492    0.8772    0.0000 C   0  0
   -4.2501   -0.5904    0.0000 S   0  0
   -5.6738   -1.0654    0.0000 C   0  0
   -5.9752   -2.5357    0.0000 C   0  0
   -4.8530   -3.5309    0.0000 O   0  0
   -7.3989   -3.0106    0.0000 N   0  0
   -7.7003   -4.4809    0.0000 C   0  0
   -6.5764   -5.4743    0.0000 C   0  0
   -6.8747   -6.9444    0.0000 C   0  0
   -8.2969   -7.4211    0.0000 C   0  0
   -8.5953   -8.8919    0.0000 C   0  0
   -7.4730   -9.8871    0.0000 C   0  0
   -7.7736  -11.3567    0.0000 C   0  0
   -9.1966  -11.8311    0.0000 C   0  0
   -9.5004  -13.3009    0.0000 C   0  0
  -10.9248  -13.7736    0.0000 C   0  0
  -11.2285  -15.2425    0.0000 O   0  0
  -12.0455  -12.7765    0.0000 O   0  0
  -10.3190  -10.8360    0.0000 C   0  0
  -10.0183   -9.3664    0.0000 C   0  0
   -9.4209   -6.4277    0.0000 C   0  0
   -9.1226   -4.9577    0.0000 C   0  0
  -10.2466   -3.9644    0.0000 Cl  0  0
   -1.2990   -0.7500    0.0000 C   0  0
   -2.5981   -1.5000    0.0000 Cl  0  0
    0.0000   -1.5000    0.0000 C   0  0
  1  2  1  0
  2  3  2  0
  3  4  1  0
  4  5  2  0
  5  6  1  0
  6  7  1  0
  7  8  1  0
  7  9  2  0
  9 10  1  0
 10 11  2  0
 11  6  1  0
 11 12  1  0
 12 13  1  0
 13 14  1  0
 14 15  2  0
 14 16  1  0
 16 17  1  0
 17 18  2  0
 18 19  1  0
 19 20  2  0
 20 21  1  0
 21 22  2  0
 22 23  1  0
 23 24  2  0
 24 25  1  0
 25 26  1  0
 26 27  2  0
 26 28  1  0
 24 29  1  0
 29 30  2  0
 30 21  1  0
 20 31  1  0
 31 32  2  0
 32 17  1  0
 32 33  1  0
  5 34  1  4
 34 35  1  0
 34 36  2  0
 36  2  1  0
M  END
> <Smiles>
Cc1ccc(-n2c(C)cnc2SCC(=O)Nc2ccc(-c3ccc(CC(=O)O)cc3)cc2Cl)c(Cl)c1

> <IC50_uM>
0.549

> <pIC50>
6.260427656

> <Activity>
1

$$$$

  SciTegic10102310092D

 10 10  0  0  0  0            999 V2000
    2.6003   -1.4977    0.0000 C   0  0
    1.2990   -0.7500    0.0000 C   0  0
    1.2990    0.7500    0.0000 C   0  0
    0.0000    1.5000    0.0000 C   0  0
   -1.2990    0.7500    0.0000 C   0  0
   -1.2990   -0.7500    0.0000 C   0  0
    0.0000   -1.5000    0.0000 C   0  0
    0.0000   -3.0000    0.0000 O   0  0
    2.6030   -2.9977    0.0000 O   0  0
    3.8983   -0.7459    0.0000 O   0  0
  1  2  1  0
  2  3  2  0
  3  4  1  0
  4  5  2  0
  5  6  1  0
  6  7  2  0
  7  2  1  0
  7  8  1  0
  1  9  1  0
  1 10  2  0
M  END
> <Smiles>
C(c1ccccc1O)(O)=O

> <IC50_uM>
0.549540874

> <pIC50>
6.26

> <Activity>
1

$$$$

  SciTegic10102310092D

  8  8  0  0  0  0            999 V2000
    2.5981   -1.5000    0.0000 C   0  0
    1.2990   -0.7500    0.0000 C   0  0  3  0  0  0
    1.2990    0.7500    0.0000 C   0  0
    0.0000    1.5000    0.0000 C   0  0
   -1.2990    0.7500    0.0000 O   0  0
   -1.2990   -0.7500    0.0000 S   0  0  3  0  0  0
   -2.5981   -1.5000    0.0000 O   0  0
    0.0000   -1.5000    0.0000 O   0  0
  2  1  1  4
  2  3  1  0
  3  4  1  0
  4  5  1  0
  6  5  1  4
  6  7  2  0
  6  8  1  0
  8  2  1  0
M  END
> <Smiles>
CC1CCOS(=O)O1

> <IC50_uM>
0.549540874

> <pIC50>
6.26

> <Activity>
1

$$$$

  SciTegic10102310092D

 10 10  0  0  0  0            999 V2000
    2.5981   -1.5000    0.0000 O   0  5
    1.2990   -0.7500    0.0000 N   0  3
    1.2990    0.7500    0.0000 C   0  0
    0.0000    1.5000    0.0000 C   0  0
   -1.2990    0.7500    0.0000 C   0  0
   -2.5981    1.5000    0.0000 N   0  0
   -1.2990   -0.7500    0.0000 C   0  0
    0.0000   -1.5000    0.0000 C   0  0
    0.0000   -3.0000    0.0000 C   0  0
    2.5981    1.5000    0.0000 C   0  0
  1  2  1  0
  2  3  2  0
  3  4  1  0
  4  5  2  0
  5  6  1  0
  5  7  1  0
  7  8  2  0
  8  2  1  0
  8  9  1  0
  3 10  1  0
M  CHG  2   1  -1   2   1
M  END
> <Smiles>
[O-][n+]1c(cc(N)cc1C)C

> <IC50_uM>
0.549540874

> <pIC50>
6.26

> <Activity>
1

$$$$

  SciTegic10102310092D

  8  8  0  0  0  0            999 V2000
    2.2393   -0.8531    0.0000 O   0  0
    0.7500   -1.0323    0.0000 S   0  0
    1.2135    0.3943    0.0000 C   0  0
    0.0000    1.2760    0.0000 C   0  0
   -1.2135    0.3943    0.0000 C   0  0
   -2.6401    0.8578    0.0000 O   0  0
   -0.7500   -1.0323    0.0000 O   0  0
    0.1196   -2.3934    0.0000 O   0  0
  1  2  2  0
  2  3  1  0
  3  4  1  0
  4  5  1  0
  5  6  2  0
  5  7  1  0
  7  2  1  0
  2  8  2  0
M  END
> <Smiles>
O=S1(CCC(=O)O1)=O

> <IC50_uM>
0.549540874

> <pIC50>
6.26

> <Activity>
1

$$$$

  SciTegic10102310092D

 10  9  0  0  0  0            999 V2000
    3.9000    0.7500    0.0000 N   0  0
    2.6000    0.0000    0.0000 C   0  0
    2.6000   -1.5000    0.0000 O   0  0
    1.3000    0.7500    0.0000 C   0  0
    0.0007    0.0004    0.0000 C   0  0
    5.2000    0.0000    0.0000 C   0  0
    5.2000   -1.5000    0.0000 N   0  0
    6.5000    0.7500    0.0000 N   0  0
    7.7999    0.0000    0.0000 C   0  0
    9.0992   -0.7496    0.0000 N   0  0
  1  2  1  0
  2  3  2  0
  2  4  1  0
  4  5  2  0
  1  6  1  0
  6  7  2  0
  6  8  1  0
  8  9  1  0
  9 10  3  0
M  END
> <Smiles>
N(C(=O)C=C)C(=N)NC#N

> <IC50_uM>
0.549540874

> <pIC50>
6.26

> <Activity>
1

$$$$

  SciTegic10102310092D

  8  8  0  0  0  0            999 V2000
    1.2990   -0.7500    0.0000 S   0  0
    2.5800    0.0305    0.0000 O   0  0
    1.2638   -2.2496    0.0000 O   0  0
    1.2990    0.7500    0.0000 O   0  0
    0.0000    1.5000    0.0000 C   0  0
   -1.2990    0.7500    0.0000 C   0  0
   -1.2990   -0.7500    0.0000 C   0  0
    0.0000   -1.5000    0.0000 O   0  0
  1  2  2  0
  1  3  2  0
  1  4  1  0
  4  5  1  0
  5  6  1  0
  6  7  1  0
  7  8  1  0
  8  1  1  0
M  END
> <Smiles>
S1(=O)(=O)OCCCO1

> <IC50_uM>
0.549540874

> <pIC50>
6.26

> <Activity>
1

$$$$

  SciTegic10102310092D

 10 10  0  0  0  0            999 V2000
    1.2990   -0.7500    0.0000 C   0  0
    1.2990    0.7500    0.0000 C   0  0
    2.5981    1.5000    0.0000 C   0  0
    0.0000    1.5000    0.0000 C   0  0
   -1.2990    0.7500    0.0000 C   0  0
   -2.5981    1.5000    0.0000 C   0  0
   -1.2990   -0.7500    0.0000 N   0  3
   -2.5981   -1.5000    0.0000 O   0  5
    0.0000   -1.5000    0.0000 C   0  0
    0.0000   -3.0000    0.0000 C   0  0
  1  2  2  0
  2  3  1  0
  2  4  1  0
  4  5  2  0
  5  6  1  0
  5  7  1  0
  7  8  1  0
  7  9  2  0
  9  1  1  0
  9 10  1  0
M  CHG  2   7   1   8  -1
M  END
> <Smiles>
c1c(C)cc(C)[n+]([O-])c1C

> <IC50_uM>
0.549540874

> <pIC50>
6.26

> <Activity>
1

$$$$

  SciTegic10102310092D

 10 10  0  0  0  0            999 V2000
    0.7500   -1.0323    0.0000 N   0  0
    1.2135    0.3943    0.0000 C   0  0
    2.6401    0.8578    0.0000 O   0  0
    0.0000    1.2760    0.0000 C   0  0  3  0  0  0
    0.0000    2.7742    0.0000 C   0  0
    0.0000    4.2742    0.0000 N   0  0
   -1.2135    0.3943    0.0000 C   0  0
   -2.6401    0.8578    0.0000 O   0  0
   -0.7500   -1.0323    0.0000 C   0  0
   -1.6317   -2.2458    0.0000 O   0  0
  1  2  1  0
  2  3  2  0
  2  4  1  0
  4  5  1  4
  5  6  3  0
  4  7  1  0
  7  8  2  0
  7  9  1  0
  9  1  1  0
  9 10  2  0
M  END
> <Smiles>
N1C(=O)C(C#N)C(=O)C1=O

> <IC50_uM>
0.549540874

> <pIC50>
6.26

> <Activity>
1

$$$$

  SciTegic10102310092D

 10 10  0  0  0  0            999 V2000
    1.2990   -0.7500    0.0000 C   0  0
    1.2990    0.7500    0.0000 C   0  0  3  0  0  0
    2.5972    1.5031    0.0000 C   0  0
    3.8976    0.7554    0.0000 C   0  0
    2.5951    3.0031    0.0000 O   0  0
    0.0000    1.5000    0.0000 C   0  0
   -1.2990    0.7500    0.0000 C   0  0
   -1.2990   -0.7500    0.0000 C   0  0
   -2.5981   -1.5000    0.0000 C   0  0
    0.0000   -1.5000    0.0000 C   0  0
  1  2  1  0
  2  3  1  4
  3  4  1  0
  3  5  2  0
  2  6  1  0
  6  7  1  0
  7  8  2  0
  8  9  1  0
  8 10  1  0
 10  1  1  0
M  END
> <Smiles>
C1C(C(C)=O)CC=C(C)C1

> <IC50_uM>
0.549540874

> <pIC50>
6.26

> <Activity>
1

$$$$

  SciTegic10102310092D

 34 35  0  0  0  0            999 V2000
    3.8995   -3.7516    0.0000 C   0  0
    2.5997   -3.0012    0.0000 C   0  0  3  0  0  0
    1.3009   -3.7516    0.0000 C   0  0
    2.6000   -4.5012    0.0000 O   0  0
    2.5988   -1.5004    0.0000 C   0  0  3  0  0  0
    3.8976   -0.7500    0.0000 C   0  0
    2.5986   -0.0004    0.0000 O   0  0
    1.2990   -0.7500    0.0000 C   0  0
    1.2990    0.7500    0.0000 C   0  0
    0.0000    1.5000    0.0000 C   0  0
   -1.2990    0.7500    0.0000 C   0  0
   -2.6003    1.4977    0.0000 O   0  0
   -3.8990    0.7455    0.0000 C   0  0
   -5.2003    1.4932    0.0000 C   0  0
   -6.4990    0.7409    0.0000 C   0  0
   -7.8003    1.4887    0.0000 N   0  3
   -9.0983    0.7368    0.0000 C   0  0
   -7.8029    2.9887    0.0000 C   0  0
   -9.1005    2.2366    0.0000 C   0  0
   -1.2990   -0.7500    0.0000 C   0  0
    0.0000   -1.5000    0.0000 C   0  0
    3.8995   -5.2516    0.0000 C   0  0
    5.1985   -6.0016    0.0000 C   0  0
    6.4976   -5.2516    0.0000 C   0  0
    7.7989   -5.9994    0.0000 O   0  0
    9.0976   -5.2471    0.0000 C   0  0
   10.3989   -5.9948    0.0000 C   0  0
   11.6975   -5.2426    0.0000 C   0  0
   12.9988   -5.9903    0.0000 N   0  3
   14.2968   -5.2384    0.0000 C   0  0
   13.0015   -7.4903    0.0000 C   0  0
   14.2991   -6.7382    0.0000 C   0  0
    6.4976   -3.7516    0.0000 C   0  0
    5.1985   -3.0016    0.0000 C   0  0
  1  2  1  0
  2  3  1  4
  2  4  1  0
  2  5  1  0
  5  6  1  4
  5  7  1  0
  5  8  1  0
  8  9  2  0
  9 10  1  0
 10 11  2  0
 11 12  1  0
 12 13  1  0
 13 14  1  0
 14 15  1  0
 15 16  1  0
 16 17  1  0
 16 18  1  0
 16 19  1  0
 11 20  1  0
 20 21  2  0
 21  8  1  0
  1 22  2  0
 22 23  1  0
 23 24  2  0
 24 25  1  0
 25 26  1  0
 26 27  1  0
 27 28  1  0
 28 29  1  0
 29 30  1  0
 29 31  1  0
 29 32  1  0
 24 33  1  0
 33 34  2  0
 34  1  1  0
M  CHG  2  16   1  29   1
M  END
> <Smiles>
c1(C(C)(O)C(C)(O)c2ccc(OCCC[N+](C)(C)C)cc2)ccc(OCCC[N+](C)(C)C)cc1

> <IC50_uM>
0.549540874

> <pIC50>
6.26

> <Activity>
1

$$$$

  SciTegic10102310092D

 44 46  0  0  0  0            999 V2000
    1.2990   -0.7500    0.0000 C   0  0
    1.2990    0.7500    0.0000 C   0  0
    2.5981    1.5000    0.0000 C   0  0
    3.8994    0.7523    0.0000 C   0  0
    5.1981    1.5046    0.0000 N   0  0
    6.4994    0.7568    0.0000 C   0  0
    7.7980    1.5091    0.0000 C   0  0
    9.0993    0.7614    0.0000 C   0  0
   10.3980    1.5137    0.0000 N   0  0
   11.6993    0.7659    0.0000 C   0  0
   12.9980    1.5182    0.0000 C   0  0
   14.2993    0.7705    0.0000 C   0  0
   15.5980    1.5228    0.0000 C   0  0
   16.8993    0.7751    0.0000 N   0  0
   18.1979    1.5273    0.0000 C   0  0
   19.4992    0.7796    0.0000 C   0  0
   20.7979    1.5319    0.0000 C   0  0
   22.0985    0.7846    0.0000 N   0  0
    2.5981    3.0000    0.0000 C   0  0
    3.8971    3.7500    0.0000 C   0  0
    3.8971    5.2500    0.0000 C   0  0
    2.5980    6.0000    0.0000 C   0  0
    1.2990    5.2500    0.0000 C   0  0
    1.2990    3.7500    0.0000 C   0  0
    0.0000    3.0000    0.0000 C   0  0
   -1.3013    3.7477    0.0000 C   0  0
   -2.6000    2.9955    0.0000 N   0  0
   -3.9013    3.7432    0.0000 C   0  0
   -5.2000    2.9909    0.0000 C   0  0
   -6.5013    3.7386    0.0000 C   0  0
   -7.8000    2.9864    0.0000 N   0  0
   -9.1013    3.7341    0.0000 C   0  0
  -10.3999    2.9818    0.0000 C   0  0
  -11.7012    3.7296    0.0000 C   0  0
  -12.9999    2.9773    0.0000 C   0  0
  -14.3012    3.7250    0.0000 N   0  0
  -15.5999    2.9727    0.0000 C   0  0
  -16.9012    3.7205    0.0000 C   0  0
  -18.1999    2.9682    0.0000 C   0  0
  -19.5004    3.7155    0.0000 N   0  0
    0.0000    1.5000    0.0000 C   0  0
   -1.2990    0.7500    0.0000 C   0  0
   -1.2990   -0.7500    0.0000 C   0  0
    0.0000   -1.5000    0.0000 C   0  0
  1  2  2  0
  2  3  1  0
  3  4  1  0
  4  5  1  0
  5  6  1  0
  6  7  1  0
  7  8  1  0
  8  9  1  0
  9 10  1  0
 10 11  1  0
 11 12  1  0
 12 13  1  0
 13 14  1  0
 14 15  1  0
 15 16  1  0
 16 17  1  0
 17 18  1  0
  3 19  2  0
 19 20  1  0
 20 21  2  0
 21 22  1  0
 22 23  2  0
 19 24  1  0
 24 23  1  0
 24 25  2  0
 25 26  1  0
 26 27  1  0
 27 28  1  0
 28 29  1  0
 29 30  1  0
 30 31  1  0
 31 32  1  0
 32 33  1  0
 33 34  1  0
 34 35  1  0
 35 36  1  0
 36 37  1  0
 37 38  1  0
 38 39  1  0
 39 40  1  0
  2 41  1  0
 41 25  1  0
 41 42  2  0
 42 43  1  0
 43 44  2  0
 44  1  1  0
M  END
> <Smiles>
c1c(c(CNCCCNCCCCNCCCN)c(cccc2)c2c3CNCCCNCCCCNCCCN)c3ccc1

> <IC50_uM>
0.549540874

> <pIC50>
6.26

> <Activity>
1

$$$$

  SciTegic10102310092D

 10 10  0  0  0  0            999 V2000
    1.6852   -0.3846    0.0000 C   0  0  3  0  0  0
    3.1476   -0.7184    0.0000 O   0  0
    1.3514    1.0778    0.0000 C   0  0  3  0  0  0
    2.5264    2.0147    0.0000 C   0  0
    3.6991    2.9500    0.0000 C   0  0
    0.0000    1.7286    0.0000 C   0  0
   -1.3515    1.0777    0.0000 C   0  0
   -1.6852   -0.3847    0.0000 C   0  0
   -0.7500   -1.5574    0.0000 C   0  0
    0.7500   -1.5574    0.0000 C   0  0
  1  2  1  4
  1  3  1  0
  3  4  1  4
  4  5  3  0
  3  6  1  0
  6  7  1  0
  7  8  1  0
  8  9  1  0
  9 10  1  0
 10  1  1  0
M  END
> <Smiles>
C1(O)C(C#C)CCCCC1

> <IC50_uM>
0.549540874

> <pIC50>
6.26

> <Activity>
1

$$$$

  SciTegic10102310092D

  7  6  0  0  0  0            999 V2000
    2.6000    0.0000    0.0000 C   0  0
    2.6000   -1.5000    0.0000 N   0  0
    1.3000    0.7500    0.0000 C   0  0
    0.0007    0.0004    0.0000 C   0  0
    1.3000    2.2500    0.0000 C   0  0
    3.9000    0.7500    0.0000 O   0  0
    5.1992    0.0004    0.0000 C   0  0
  1  2  2  0
  1  3  1  0
  3  4  1  0
  3  5  1  0
  1  6  1  0
  6  7  1  0
M  END
> <Smiles>
C(=N)(C(C)C)OC

> <IC50_uM>
0.549540874

> <pIC50>
6.26

> <Activity>
1

$$$$

  SciTegic10102310092D

  8  8  0  0  0  0            999 V2000
    0.7500   -1.0323    0.0000 C   0  0
    1.2135    0.3943    0.0000 C   0  0
    2.6401    0.8578    0.0000 O   0  0
    0.0000    1.2760    0.0000 N   0  0
   -1.2135    0.3943    0.0000 S   0  0
   -1.5034    1.8660    0.0000 O   0  0
   -2.3132   -0.6258    0.0000 O   0  0
   -0.7500   -1.0323    0.0000 N   0  0
  1  2  1  0
  2  3  2  0
  2  4  1  0
  4  5  1  0
  5  6  2  0
  5  7  2  0
  5  8  1  0
  8  1  1  0
M  END
> <Smiles>
C1C(=O)NS(=O)(=O)N1

> <IC50_uM>
0.549540874

> <pIC50>
6.26

> <Activity>
1

$$$$

  SciTegic10102310092D

 30 33  0  0  0  0            999 V2000
    5.2059   -2.9909    0.0000 C   0  0
    5.2007   -1.4909    0.0000 C   0  0
    6.4972   -0.7364    0.0000 C   0  0
    7.7988   -1.4819    0.0000 O   0  0
    6.4920    0.7636    0.0000 N   0  0
    5.1903    1.5091    0.0000 C   0  0
    5.1821    3.0099    0.0000 S   0  0
    3.8787    3.7539    0.0000 C   0  0
    3.8704    5.2547    0.0000 C   0  0
    5.1655    6.0115    0.0000 O   0  0
    2.5670    5.9988    0.0000 C   0  0
    2.5565    7.4988    0.0000 C   0  0
    1.2523    8.2398    0.0000 C   0  0
   -0.0415    7.4808    0.0000 C   0  0
   -1.3457    8.2218    0.0000 Cl  0  0
   -0.0311    5.9809    0.0000 C   0  0
    1.2731    5.2399    0.0000 C   0  0
    3.8939    0.7546    0.0000 N   0  0
    3.8990   -0.7455    0.0000 C   0  0
    2.6003   -1.4977    0.0000 C   0  0
    1.2990   -0.7500    0.0000 C   0  0
    1.2990    0.7500    0.0000 C   0  0
    0.0000    1.5000    0.0000 C   0  0
   -1.2990    0.7500    0.0000 C   0  0
   -1.2990   -0.7500    0.0000 C   0  0
   -2.5981   -1.5000    0.0000 C   0  0
   -2.5981   -3.0000    0.0000 C   0  0
   -1.2990   -3.7500    0.0000 C   0  0
    0.0000   -3.0000    0.0000 C   0  0
    0.0000   -1.5000    0.0000 C   0  0
  1  2  1  0
  2  3  2  0
  3  4  1  0
  3  5  1  0
  5  6  2  0
  6  7  1  0
  7  8  1  0
  8  9  1  0
  9 10  2  0
  9 11  1  0
 11 12  2  0
 12 13  1  0
 13 14  2  0
 14 15  1  0
 14 16  1  0
 16 17  2  0
 17 11  1  0
  6 18  1  0
 18 19  2  0
 19  2  1  0
 19 20  1  0
 20 21  1  0
 21 22  2  0
 22 23  1  0
 23 24  2  0
 24 25  1  0
 25 26  2  0
 26 27  1  0
 27 28  2  0
 28 29  1  0
 29 30  2  0
 30 21  1  0
 30 25  1  0
M  END
> <Smiles>
Cc1c(O)nc(SCC(=O)c2ccc(Cl)cc2)nc1Cc1cccc2ccccc12

> <IC50_uM>
0.55

> <pIC50>
6.259637311

> <Activity>
1

$$$$

  SciTegic10102310092D

 33 36  0  0  0  0            999 V2000
    3.1676   -7.5606    0.0000 C   0  0
    1.7006   -7.2475    0.0000 C   0  0
    0.6960   -8.3614    0.0000 C   0  0
   -0.7710   -8.0483    0.0000 C   0  0
   -1.7756   -9.1622    0.0000 C   0  0
   -1.2333   -6.6213    0.0000 C   0  0
   -0.2287   -5.5075    0.0000 C   0  0
   -0.6913   -4.0797    0.0000 S   0  0
   -2.1584   -3.7671    0.0000 O   0  0
   -1.6957   -5.1937    0.0000 O   0  0
    0.3114   -2.9665    0.0000 N   0  0
    1.8032   -3.1233    0.0000 C   0  0
    2.5551   -4.4192    0.0000 S   0  0
    4.0559   -4.4171    0.0000 C   0  0
    4.8090   -5.7153    0.0000 C   0  0
    4.0613   -7.0156    0.0000 O   0  0
    6.3098   -5.7131    0.0000 N   0  0
    7.0629   -7.0113    0.0000 C   0  0
    6.3130   -8.3104    0.0000 C   0  0
    7.0631   -9.6094    0.0000 C   0  0
    8.5631   -9.6094    0.0000 C   0  0
    9.3132  -10.9084    0.0000 C   0  0
    9.3130   -8.3103    0.0000 C   0  0
    8.5630   -7.0113    0.0000 C   0  0
    9.3129   -5.7122    0.0000 Cl  0  0
    2.4133   -1.7530    0.0000 N   0  0
    1.2990   -0.7500    0.0000 C   0  0
    1.2990    0.7500    0.0000 C   0  0
    0.0000    1.5000    0.0000 C   0  0
   -1.2990    0.7500    0.0000 C   0  0
   -1.2990   -0.7500    0.0000 C   0  0
    0.0000   -1.5000    0.0000 C   0  0
    1.2383   -5.8206    0.0000 C   0  0
  1  2  1  0
  2  3  2  0
  3  4  1  0
  4  5  1  0
  4  6  2  0
  6  7  1  0
  7  8  1  0
  8  9  2  0
  8 10  2  0
  8 11  1  0
 11 12  1  0
 12 13  1  0
 13 14  1  0
 14 15  1  0
 15 16  2  0
 15 17  1  0
 17 18  1  0
 18 19  2  0
 19 20  1  0
 20 21  2  0
 21 22  1  0
 21 23  1  0
 23 24  2  0
 24 18  1  0
 24 25  1  0
 12 26  2  0
 26 27  1  0
 27 28  2  0
 28 29  1  0
 29 30  2  0
 30 31  1  0
 31 32  2  0
 32 27  1  0
 32 11  1  0
  7 33  2  0
 33  2  1  0
M  END
> <Smiles>
Cc1cc(C)cc(S(=O)(=O)n2c(SCC(=O)Nc3ccc(C)cc3Cl)nc3ccccc32)c1

> <IC50_uM>
0.55

> <pIC50>
6.259637311

> <Activity>
1

$$$$

  SciTegic10102310092D

 36 39  0  0  0  0            999 V2000
    3.8983   -0.7459    0.0000 C   0  0
    2.6003   -1.4977    0.0000 O   0  0
    1.2990   -0.7500    0.0000 C   0  0
    1.2990    0.7500    0.0000 C   0  0
    0.0000    1.5000    0.0000 C   0  0
    0.0000    3.0000    0.0000 N   0  0
   -1.2991    3.7500    0.0000 C   0  0
   -1.3022    5.2508    0.0000 N   0  0
   -2.6030    5.9994    0.0000 C   0  0
   -2.6083    7.4994    0.0000 C   0  0
   -3.9099    8.2449    0.0000 C   0  0
   -5.2063    7.4904    0.0000 C   0  0
   -6.5087    8.2363    0.0000 C   0  0
   -7.8103    8.9818    0.0000 N   0  0
   -5.2011    5.9904    0.0000 C   0  0
   -3.8995    5.2449    0.0000 C   0  0
   -2.5981    3.0000    0.0000 N   0  0
   -2.5981    1.5000    0.0000 C   0  0
   -3.8994    0.7522    0.0000 N   0  0
   -5.1981    1.5045    0.0000 C   0  0
   -6.4998    0.7590    0.0000 C   0  0
   -6.5050   -0.7409    0.0000 C   0  0
   -7.7962    1.5135    0.0000 C   0  0
   -7.7910    3.0135    0.0000 C   0  0
   -9.0866    3.7711    0.0000 C   0  0
   -9.0793    5.2719    0.0000 C   0  0
  -10.3749    6.0295    0.0000 C   0  0
  -11.6698    6.7866    0.0000 N   0  0
   -6.4894    3.7590    0.0000 C   0  0
   -5.1930    3.0045    0.0000 C   0  0
   -3.8914    3.7501    0.0000 C   0  0
   -1.2990    0.7500    0.0000 C   0  0
   -1.2990   -0.7500    0.0000 C   0  0
    0.0000   -1.5000    0.0000 C   0  0
   -0.0031   -3.0008    0.0000 O   0  0
   -1.3032   -3.7490    0.0000 C   0  0
  1  2  1  0
  2  3  1  0
  3  4  2  0
  4  5  1  0
  5  6  2  0
  6  7  1  0
  7  8  1  0
  8  9  1  0
  9 10  2  0
 10 11  1  0
 11 12  2  0
 12 13  1  0
 13 14  3  0
 12 15  1  0
 15 16  2  0
 16  9  1  0
  7 17  2  0
 17 18  1  0
 18 19  1  0
 19 20  1  0
 20 21  2  0
 21 22  1  0
 21 23  1  0
 23 24  2  0
 24 25  1  0
 25 26  2  0
 26 27  1  0
 27 28  3  0
 24 29  1  0
 29 30  2  0
 30 20  1  0
 30 31  1  0
 18 32  2  0
 32  5  1  0
 32 33  1  0
 33 34  2  0
 34  3  1  0
 34 35  1  0
 35 36  1  0
M  END
> <Smiles>
COc1cc2nc(Nc3ccc(C#N)cc3)nc(Nc3c(C)cc(/C=C/C#N)cc3C)c2cc1OC

> <IC50_uM>
0.55

> <pIC50>
6.259637311

> <Activity>
1

$$$$

  SciTegic10102310092D

 41 44  0  0  1  0            999 V2000
   11.6934   -3.7531    0.0000 C   0  0
   10.3967   -2.9990    0.0000 C   0  0
    9.5293   -3.4965    0.0000 C   0  0
   10.4005   -1.4981    0.0000 C   0  0
    9.1031   -0.7436    0.0000 N   0  0
    7.8028   -1.4930    0.0000 C   0  0
    7.8007   -2.9938    0.0000 C   0  0  1  0  0  0
    8.6661   -3.4948    0.0000 O   0  0
    6.5003   -3.7432    0.0000 C   0  0  2  0  0  0
    5.1998   -2.9940    0.0000 C   0  0
    3.9003   -3.7449    0.0000 C   0  0
    3.8977   -5.2449    0.0000 C   0  0
    2.5973   -5.9927    0.0000 C   0  0
    1.2996   -5.2404    0.0000 C   0  0
    1.3022   -3.7404    0.0000 C   0  0
    2.6025   -2.9927    0.0000 C   0  0
    6.4982   -5.2440    0.0000 N   0  0
    5.1978   -5.9934    0.0000 C   0  0
    4.3324   -5.4925    0.0000 O   0  0
    5.1957   -7.4943    0.0000 C   0  0
    6.4952   -8.2434    0.0000 C   0  0
    6.4962   -9.7434    0.0000 C   0  0
    7.7957  -10.4926    0.0000 C   0  0
    7.7966  -11.9926    0.0000 C   0  0
    6.4981  -12.7434    0.0000 C   0  0
    6.4990  -14.2434    0.0000 O   0  0
    5.1986  -11.9943    0.0000 C   0  0
    5.1976  -10.4943    0.0000 C   0  0
    3.8981   -9.7451    0.0000 O   0  0
    3.8972   -8.2451    0.0000 C   0  0
    2.5976   -7.4959    0.0000 O   0  0
    9.1053    0.7572    0.0000 S   0  0
    7.8053    0.0088    0.0000 O   0  0
    7.8071    1.5086    0.0000 O   0  0
   10.4056    1.5066    0.0000 C   0  0
   10.4068    3.0066    0.0000 C   0  0
   11.7064    3.7556    0.0000 C   0  0
   13.0049    3.0045    0.0000 C   0  0
   14.3045    3.7535    0.0000 N   0  0
   13.0037    1.5045    0.0000 C   0  0
   11.7041    0.7556    0.0000 C   0  0
  1  2  1  0
  2  3  1  0
  2  4  1  0
  4  5  1  0
  5  6  1  0
  6  7  1  0
  7  8  1  1
  7  9  1  0
  9 10  1  1
 10 11  1  0
 11 12  2  0
 12 13  1  0
 13 14  2  0
 14 15  1  0
 15 16  2  0
 16 11  1  0
  9 17  1  0
 17 18  1  0
 18 19  2  0
 18 20  1  0
 20 21  2  0
 21 22  1  0
 22 23  2  0
 23 24  1  0
 24 25  2  0
 25 26  1  0
 25 27  1  0
 27 28  2  0
 28 22  1  0
 28 29  1  0
 29 30  1  0
 30 20  1  0
 30 31  2  0
  5 32  1  0
 32 33  2  0
 32 34  2  0
 32 35  1  0
 35 36  2  0
 36 37  1  0
 37 38  2  0
 38 39  1  0
 38 40  1  0
 40 41  2  0
 41 35  1  0
M  END
> <Smiles>
CC(C)CN(C[C@@H](O)[C@H](Cc1ccccc1)NC(=O)c1cc2ccc(O)cc2oc1=O)S(=O)(=O)c1ccc(N)cc1

> <IC50_uM>
0.5544

> <pIC50>
6.256176778

> <Activity>
1

$$$$

  SciTegic10102310092D

  6  6  0  0  0  0            999 V2000
    1.6317   -2.2458    0.0000 N   0  0
    0.7500   -1.0323    0.0000 C   0  0
    1.2135    0.3943    0.0000 S   0  0
    0.0000    1.2760    0.0000 C   0  0
   -1.2135    0.3943    0.0000 N   0  0
   -0.7500   -1.0323    0.0000 N   0  0
  1  2  2  0
  2  3  1  0
  3  4  1  0
  4  5  2  0
  5  6  1  0
  6  2  1  0
M  END
> <Smiles>
N=C1SC=NN1

> <IC50_uM>
0.562341325

> <pIC50>
6.25

> <Activity>
1

$$$$

  SciTegic10102310092D

 10 10  0  0  0  0            999 V2000
    2.6003   -1.4977    0.0000 C   0  0
    1.2990   -0.7500    0.0000 N   0  0
    1.2990    0.7500    0.0000 N   0  0
    0.0000    1.5000    0.0000 C   0  0
   -1.2990    0.7500    0.0000 C   0  0
   -1.2990   -0.7500    0.0000 C   0  0
    0.0000   -1.5000    0.0000 C   0  0
    0.0000   -3.0000    0.0000 O   0  0
    0.0000    3.0000    0.0000 O   0  0
    3.8983   -0.7459    0.0000 O   0  0
  1  2  1  0
  2  3  1  0
  3  4  1  0
  4  5  1  0
  5  6  2  0
  6  7  1  0
  7  2  1  0
  7  8  2  0
  4  9  2  0
  1 10  1  0
M  END
> <Smiles>
C(N1NC(C=CC1=O)=O)O

> <IC50_uM>
0.562341325

> <pIC50>
6.25

> <Activity>
1

$$$$

  SciTegic10102310092D

 10 11  0  0  0  0            999 V2000
   -1.8778    2.7573    0.0000 C   0  0
   -1.0947    1.4779    0.0000 N   0  0
   -0.8393    0.0000    0.0000 C   0  0  3  0  0  0
    0.9488    0.0000    0.0000 C   0  0
    1.8975   -0.8028    0.0000 C   0  0  3  0  0  0
    2.6413   -2.1054    0.0000 O   0  0
    1.6421    0.6933    0.0000 C   0  0
   -1.8063   -1.3319    0.0000 C   0  0
   -0.6568   -0.6386    0.0000 C   0  0
    0.0000    0.6568    0.0000 C   0  0  3  0  0  0
  1  2  1  0
  2  3  1  0
  3  4  1  4
  4  5  1  0
  5  6  1  4
  5  7  1  0
  3  8  1  0
  8  9  1  0
  2 10  1  0
 10  7  1  4
 10  9  1  0
M  END
> <Smiles>
CN(C(CC(O)C1)CC2)C12

> <IC50_uM>
0.562341325

> <pIC50>
6.25

> <Activity>
1

$$$$

  SciTegic10102310092D

 10 10  0  0  0  0            999 V2000
    2.5981   -1.5000    0.0000 C   0  0
    1.2990   -0.7500    0.0000 C   0  0
    1.2990    0.7500    0.0000 N   0  0
    0.0000    1.5000    0.0000 N   0  0
   -1.2990    0.7500    0.0000 C   0  0
   -2.5981    1.5000    0.0000 O   0  0
   -1.2990   -0.7500    0.0000 N   0  0
    0.0000   -1.5000    0.0000 C   0  0
    0.0000   -3.0000    0.0000 O   0  0
    0.0000    3.0000    0.0000 C   0  0
  1  2  1  0
  2  3  2  0
  3  4  1  0
  4  5  1  0
  5  6  2  0
  5  7  1  0
  7  8  1  0
  8  2  1  0
  8  9  2  0
  4 10  1  0
M  END
> <Smiles>
CC1=NN(C(=O)NC1=O)C

> <IC50_uM>
0.562341325

> <pIC50>
6.25

> <Activity>
1

$$$$

  SciTegic10102310092D

 10 10  0  0  0  0            999 V2000
    2.5973   -1.5031    0.0000 O   0  0
    1.2990   -0.7500    0.0000 C   0  0
    1.2990    0.7500    0.0000 N   0  0
    0.0000    1.5000    0.0000 N   0  0
   -1.2990    0.7500    0.0000 C   0  0
   -2.5981    1.5000    0.0000 O   0  0
   -1.2990   -0.7500    0.0000 C   0  0
    0.0000   -1.5000    0.0000 C   0  0
    0.0000    3.0000    0.0000 C   0  0
    2.5951   -3.0031    0.0000 C   0  0
  1  2  1  0
  2  3  2  0
  3  4  1  0
  4  5  1  0
  5  6  2  0
  5  7  1  0
  7  8  2  0
  8  2  1  0
  4  9  1  0
  1 10  1  0
M  END
> <Smiles>
O(C1=NN(C(=O)C=C1)C)C

> <IC50_uM>
0.562341325

> <pIC50>
6.25

> <Activity>
1

$$$$

  SciTegic10102310092D

 10 11  0  0  0  0            999 V2000
    1.6317   -2.2458    0.0000 O   0  0
    0.7500   -1.0323    0.0000 C   0  0
    1.2135    0.3943    0.0000 C   0  0
    0.0000    1.2760    0.0000 C   0  0
   -1.2135    0.3943    0.0000 C   0  0
   -2.7115    0.3949    0.0000 C   0  0
   -3.1750   -1.0317    0.0000 C   0  0
   -1.9615   -1.9133    0.0000 C   0  0
   -1.9612   -3.4133    0.0000 O   0  0
   -0.7500   -1.0323    0.0000 N   0  0
  1  2  2  0
  2  3  1  0
  3  4  1  0
  4  5  1  0
  5  6  1  0
  6  7  1  0
  7  8  1  0
  8  9  2  0
  5 10  1  0
 10  2  1  0
 10  8  1  0
M  END
> <Smiles>
O=C1CCC(CCC2=O)N12

> <IC50_uM>
0.562341325

> <pIC50>
6.25

> <Activity>
1

$$$$

  SciTegic10102310092D

 10 10  0  0  0  0            999 V2000
    0.0000   -2.5607    0.0000 O   0  0
    0.0000   -1.0607    0.0000 C   0  0
    1.0607    0.0000    0.0000 C   0  0
    0.0000    1.0607    0.0000 C   0  0
    0.0000    2.5607    0.0000 O   0  0
   -1.0607    0.0000    0.0000 C   0  0
   -1.8062    1.3016    0.0000 C   0  0
   -1.8065   -1.3015    0.0000 C   0  0
    1.8062   -1.3016    0.0000 C   0  0
    1.8065    1.3015    0.0000 C   0  0
  1  2  1  0
  2  3  1  0
  3  4  1  0
  4  5  2  0
  4  6  1  0
  6  2  1  0
  6  7  1  0
  6  8  1  0
  3  9  1  0
  3 10  1  0
M  END
> <Smiles>
OC1C(C(=O)C1(C)C)(C)C

> <IC50_uM>
0.562341325

> <pIC50>
6.25

> <Activity>
1

$$$$

  SciTegic10102310092D

 10 11  0  0  0  0            999 V2000
    0.7500   -1.0323    0.0000 N   0  0
    1.2135    0.3943    0.0000 N   0  0
    0.0000    1.2760    0.0000 C   0  0
   -1.2135    0.3943    0.0000 C   0  0
   -0.7500   -1.0323    0.0000 C   0  0
   -1.6317   -2.2458    0.0000 O   0  0
    2.7115    0.3950    0.0000 C   0  0
    3.5929    1.6087    0.0000 O   0  0
    3.1750   -1.0316    0.0000 C   0  0
    1.9615   -1.9133    0.0000 C   0  0
  1  2  1  0
  2  3  1  0
  3  4  1  0
  4  5  1  0
  5  1  1  0
  5  6  2  0
  2  7  1  0
  7  8  2  0
  7  9  1  0
  9 10  1  0
 10  1  1  0
M  END
> <Smiles>
N12N(CCC1=O)C(=O)CC2

> <IC50_uM>
0.562341325

> <pIC50>
6.25

> <Activity>
1

$$$$

  SciTegic10102310092D

 10 10  0  0  0  0            999 V2000
    1.2990   -0.7500    0.0000 O   0  0
    1.2990    0.7500    0.0000 C   0  0
    2.6003    1.4978    0.0000 C   0  0
    3.8983    0.7459    0.0000 C   0  0
    0.0000    1.5000    0.0000 C   0  0
    0.0000    3.0000    0.0000 O   0  0
   -1.2990    0.7500    0.0000 C   0  0
   -2.5981    1.5000    0.0000 O   0  0
   -1.2990   -0.7500    0.0000 C   0  0
    0.0000   -1.5000    0.0000 C   0  0
  1  2  1  0
  2  3  1  0
  3  4  1  0
  2  5  2  0
  5  6  1  0
  5  7  1  0
  7  8  2  0
  7  9  1  0
  9 10  2  0
 10  1  1  0
M  END
> <Smiles>
O1C(CC)=C(O)C(=O)C=C1

> <IC50_uM>
0.562341325

> <pIC50>
6.25

> <Activity>
1

$$$$

  SciTegic10102310092D

 23 24  0  0  0  0            999 V2000
    3.9075   -3.7444    0.0000 C   0  0
    2.6060   -2.9986    0.0000 O   0  0
    2.6003   -1.4977    0.0000 C   0  0  3  0  0  0
    1.2990   -0.7500    0.0000 C   0  0
    1.2990    0.7500    0.0000 N   0  0
    0.0000    1.5000    0.0000 C   0  0
   -0.0031    3.0008    0.0000 S   0  0
   -1.3039    3.7494    0.0000 C   0  0
   -1.3070    5.2494    0.0000 C   0  0
   -2.6017    2.9971    0.0000 C   0  0
   -1.2990    0.7500    0.0000 N   0  0
   -1.2990   -0.7500    0.0000 C   0  0
   -2.5981   -1.5000    0.0000 O   0  0
    0.0000   -1.5000    0.0000 C   0  0
    0.0000   -3.0000    0.0000 C   0  0
    3.8990   -0.7455    0.0000 C   0  0
    5.2007   -1.4909    0.0000 C   0  0
    5.2060   -2.9909    0.0000 F   0  0
    6.4972   -0.7364    0.0000 C   0  0
    6.4920    0.7636    0.0000 C   0  0
    5.1903    1.5091    0.0000 C   0  0
    3.8939    0.7546    0.0000 C   0  0
    2.5923    1.5001    0.0000 F   0  0
  1  2  1  0
  3  2  1  4
  3  4  1  0
  4  5  1  0
  5  6  2  0
  6  7  1  0
  7  8  1  0
  8  9  1  0
  8 10  1  0
  6 11  1  0
 11 12  1  0
 12 13  2  0
 12 14  1  0
 14  4  2  0
 14 15  1  0
  3 16  1  0
 16 17  2  0
 17 18  1  0
 17 19  1  0
 19 20  2  0
 20 21  1  0
 21 22  2  0
 22 16  1  0
 22 23  1  0
M  END
> <Smiles>
COC(c1nc(SC(C)C)[nH]c(=O)c1C)c1c(F)cccc1F

> <IC50_uM>
0.57

> <pIC50>
6.244125144

> <Activity>
1

$$$$

  SciTegic10102310092D

 37 40  0  0  0  0            999 V2000
    2.5981   -1.5000    0.0000 C   0  0
    1.2990   -0.7500    0.0000 C   0  0
    1.2990    0.7500    0.0000 C   0  0
    2.5972    1.5031    0.0000 O   0  0
    2.5951    3.0039    0.0000 C   0  0
    1.2934    3.7495    0.0000 C   0  0
    1.2883    5.2495    0.0000 C   0  0
    2.5847    6.0040    0.0000 C   0  0
    3.8863    5.2585    0.0000 C   0  0
    3.8915    3.7585    0.0000 C   0  0
    5.1954    3.0153    0.0000 O   0  0
    6.4915    3.7721    0.0000 C   0  0
    7.7954    3.0289    0.0000 C   0  0
    9.0914    3.7857    0.0000 N   0  0
    9.0810    5.2858    0.0000 C   0  0
   10.3748    6.0448    0.0000 C   0  0
   11.6791    5.3038    0.0000 C   0  0
   12.9729    6.0629    0.0000 O   0  0
   11.6895    3.8039    0.0000 N   0  0
   10.3957    3.0449    0.0000 C   0  0
   10.4062    1.5449    0.0000 O   0  0
    0.0000    1.5000    0.0000 C   0  0
   -1.2990    0.7500    0.0000 C   0  0
   -2.5973    1.5031    0.0000 N   0  0
   -3.8976    0.7553    0.0000 C   0  0
   -2.5951    3.0039    0.0000 C   0  0
   -1.2948    3.7516    0.0000 O   0  0
   -3.8933    3.7570    0.0000 C   0  0
   -3.8912    5.2570    0.0000 Cl  0  0
   -1.2990   -0.7500    0.0000 C   0  0
   -2.5981   -1.5000    0.0000 C   0  0
   -2.5981   -3.0000    0.0000 C   0  0
   -1.2990   -3.7500    0.0000 C   0  0
   -1.2990   -5.2508    0.0000 C   0  0
   -1.2990   -6.7508    0.0000 N   0  0
    0.0000   -3.0000    0.0000 C   0  0
    0.0000   -1.5000    0.0000 C   0  0
  1  2  1  0
  2  3  2  0
  3  4  1  0
  4  5  1  0
  5  6  2  0
  6  7  1  0
  7  8  2  0
  8  9  1  0
  9 10  2  0
 10  5  1  0
 10 11  1  0
 11 12  1  0
 12 13  1  0
 13 14  1  0
 14 15  1  0
 15 16  2  0
 16 17  1  0
 17 18  2  0
 17 19  1  0
 19 20  1  0
 20 14  1  0
 20 21  2  0
  3 22  1  0
 22 23  2  0
 23 24  1  0
 24 25  1  0
 24 26  1  0
 26 27  2  0
 26 28  1  0
 28 29  1  0
 23 30  1  0
 30 31  2  0
 31 32  1  0
 32 33  2  0
 33 34  1  0
 34 35  3  0
 33 36  1  0
 36 37  2  0
 37  2  1  0
 37 30  1  0
M  END
> <Smiles>
Cc1c(Oc2ccccc2OCCn2ccc(=O)[nH]c2=O)cc(N(C)C(=O)CCl)c2ccc(C#N)cc12

> <IC50_uM>
0.57

> <pIC50>
6.244125144

> <Activity>
1

$$$$

  SciTegic10102310092D

  9 10  0  0  0  0            999 V2000
    1.6317   -2.2458    0.0000 O   0  0
    0.7500   -1.0323    0.0000 C   0  0
    1.2135    0.3943    0.0000 O   0  0
    0.0000    1.2760    0.0000 N   0  0
   -1.2135    0.3943    0.0000 N   0  3
   -2.7115    0.3949    0.0000 C   0  0
   -3.1750   -1.0317    0.0000 S   0  0
   -1.9615   -1.9133    0.0000 C   0  0
   -0.7500   -1.0323    0.0000 C   0  0
  1  2  1  0
  2  3  1  0
  3  4  1  0
  4  5  2  0
  5  6  1  0
  6  7  1  0
  7  8  1  0
  5  9  1  0
  9  2  2  0
  9  8  1  0
M  CHG  1   5   1
M  END
> <Smiles>
Oc1on[n+](CSC2)c12

> <IC50_uM>
0.575439937

> <pIC50>
6.24

> <Activity>
1

$$$$

  SciTegic10102310092D

  9 10  0  0  0  0            999 V2000
   -5.7497   -3.2312    0.0000 C   0  0
   -4.5628   -2.3141    0.0000 C   0  0  3  0  0  0
   -3.8642   -1.1134    0.0000 C   0  0
   -2.4451   -0.7641    0.0000 N   0  0  3  0  0  0
   -1.2226   -1.1134    0.0000 C   0  0  3  0  0  0
    0.1650   -0.5436    0.0000 C   0  0
   -1.8993   -2.3141    0.0000 C   0  0
   -3.2310    0.3930    0.0000 S   0  0
   -3.2310   -1.9430    0.0000 N   0  0  3  0  0  0
  2  1  1  4
  2  3  1  0
  4  3  1  4
  4  5  1  0
  5  6  1  4
  5  7  1  0
  4  8  1  0
  9  8  1  4
  9  2  1  0
  9  7  1  0
M  END
> <Smiles>
CC1CN(C(C)C2)SN12

> <IC50_uM>
0.575439937

> <pIC50>
6.24

> <Activity>
1

$$$$

  SciTegic10102310092D

  9  9  0  0  0  0            999 V2000
    1.6332   -2.2426    0.0000 C   0  0
    0.7500   -1.0323    0.0000 C   0  0
    1.2135    0.3943    0.0000 N   0  0
    0.0000    1.2760    0.0000 S   0  0
   -1.2135    0.3943    0.0000 N   0  0
   -0.7500   -1.0323    0.0000 C   0  0
   -1.6317   -2.2458    0.0000 C   0  0
    3.1255   -2.0835    0.0000 C   0  0
    4.0097   -3.2952    0.0000 O   0  0
  1  2  1  0
  2  3  2  0
  3  4  1  0
  4  5  1  0
  5  6  2  0
  6  2  1  0
  6  7  1  0
  1  8  1  0
  8  9  1  0
M  END
> <Smiles>
C(c1nsnc1C)CO

> <IC50_uM>
0.575439937

> <pIC50>
6.24

> <Activity>
1

$$$$

  SciTegic10102310092D

 10  9  0  0  0  0            999 V2000
    5.2000   -1.5000    0.0000 C   0  0
    5.2000    0.0000    0.0000 C   0  0
    3.9000    0.7500    0.0000 C   0  0
    2.6000    0.0000    0.0000 N   0  0
    1.3000    0.7500    0.0000 C   0  0
    0.0007    0.0004    0.0000 C   0  0
    2.5969   -1.5008    0.0000 C   0  0
    1.2968   -2.2490    0.0000 C   0  0
    3.9000    2.2500    0.0000 O   0  0
    6.4992    0.7496    0.0000 O   0  0
  1  2  1  0
  2  3  1  0
  3  4  1  0
  4  5  1  0
  5  6  1  0
  4  7  1  0
  7  8  1  0
  3  9  2  0
  2 10  2  0
M  END
> <Smiles>
CC(C(N(CC)CC)=O)=O

> <IC50_uM>
0.575439937

> <pIC50>
6.24

> <Activity>
1

$$$$

  SciTegic10102310092D

 10  9  0  0  0  0            999 V2000
    0.0007    0.0004    0.0000 C   0  0
    1.3000    0.7500    0.0000 C   0  0
    2.6000    0.0000    0.0000 C   0  0
    3.9000    0.7500    0.0000 N   0  0
    5.2000    0.0000    0.0000 C   0  0
    6.4992    0.7496    0.0000 C   0  0
    5.2000   -1.5000    0.0000 C   0  0
    6.4989   -0.7502    0.0000 C   0  0
    3.9000    2.2500    0.0000 O   0  0
    2.6000   -1.5000    0.0000 O   0  0
  1  2  1  0
  2  3  1  0
  3  4  1  0
  4  5  1  0
  5  6  1  0
  5  7  1  0
  5  8  1  0
  4  9  1  0
  3 10  2  0
M  END
> <Smiles>
CCC(N(C(C)(C)C)O)=O

> <IC50_uM>
0.575439937

> <pIC50>
6.24

> <Activity>
1

$$$$

  SciTegic10102310092D

  9  9  0  0  0  0            999 V2000
    0.7500   -1.0323    0.0000 N   0  0
    1.2135    0.3943    0.0000 N   0  0
    0.0000    1.2760    0.0000 S   0  0
   -1.2135    0.3943    0.0000 C   0  0
   -0.7500   -1.0323    0.0000 C   0  0
   -1.6281   -2.2462    0.0000 C   0  0
   -1.0157   -3.6164    0.0000 O   0  0
   -1.8949   -4.8318    0.0000 C   0  0
   -3.1202   -2.0921    0.0000 O   0  0
  1  2  2  0
  2  3  1  0
  3  4  1  0
  4  5  2  0
  5  1  1  0
  5  6  1  0
  6  7  1  0
  7  8  1  0
  6  9  2  0
M  END
> <Smiles>
n1nscc1C(OC)=O

> <IC50_uM>
0.575439937

> <pIC50>
6.24

> <Activity>
1

$$$$

  SciTegic10102310092D

 10 10  0  0  0  0            999 V2000
    0.7500   -1.0323    0.0000 N   0  3
    2.2393   -0.8531    0.0000 C   0  0
    0.1196   -2.3934    0.0000 C   0  0
    1.2135    0.3943    0.0000 C   0  0  3  0  0  0
    2.6375    0.8603    0.0000 C   0  0
    3.7540   -0.1415    0.0000 O   0  5
    2.9472    2.3279    0.0000 O   0  0
    0.0000    1.2760    0.0000 C   0  0
   -1.2135    0.3943    0.0000 C   0  0
   -0.7500   -1.0323    0.0000 C   0  0
  1  2  1  0
  1  3  1  0
  1  4  1  0
  4  5  1  4
  5  6  1  0
  5  7  2  0
  4  8  1  0
  8  9  1  0
  9 10  1  0
 10  1  1  0
M  CHG  2   1   1   6  -1
M  END
> <Smiles>
[N+]1(C)(C)C(C([O-])=O)CCC1

> <IC50_uM>
0.575439937

> <pIC50>
6.24

> <Activity>
1

$$$$

  SciTegic10102310092D

 31 34  0  0  0  0            999 V2000
    3.1676   -7.5606    0.0000 C   0  0
    1.7006   -7.2475    0.0000 C   0  0
    0.6960   -8.3614    0.0000 C   0  0
   -0.7710   -8.0483    0.0000 C   0  0
   -1.7756   -9.1622    0.0000 C   0  0
   -1.2333   -6.6213    0.0000 C   0  0
   -0.2287   -5.5075    0.0000 C   0  0
   -0.6913   -4.0797    0.0000 S   0  0
   -2.1584   -3.7671    0.0000 O   0  0
   -1.6957   -5.1937    0.0000 O   0  0
    0.3114   -2.9665    0.0000 C   0  0
    1.8032   -3.1233    0.0000 C   0  0
    2.5551   -4.4192    0.0000 C   0  0
    1.8074   -5.7196    0.0000 O   0  0
    4.0559   -4.4171    0.0000 N   0  0
    4.8090   -5.7153    0.0000 C   0  0
    6.3098   -5.7131    0.0000 N   0  0
    7.0644   -7.0095    0.0000 C   0  0
    8.5644   -7.0043    0.0000 C   0  0
    9.3099   -5.7026    0.0000 C   0  0
    8.5554   -4.4062    0.0000 C   0  0
    7.0554   -4.4114    0.0000 C   0  0
    2.4133   -1.7530    0.0000 N   0  0
    1.2990   -0.7500    0.0000 C   0  0
    1.2990    0.7500    0.0000 C   0  0
    0.0000    1.5000    0.0000 C   0  0
   -1.2990    0.7500    0.0000 C   0  0
   -2.5981    1.5000    0.0000 Cl  0  0
   -1.2990   -0.7500    0.0000 C   0  0
    0.0000   -1.5000    0.0000 C   0  0
    1.2383   -5.8206    0.0000 C   0  0
  1  2  1  0
  2  3  2  0
  3  4  1  0
  4  5  1  0
  4  6  2  0
  6  7  1  0
  7  8  1  0
  8  9  2  0
  8 10  2  0
  8 11  1  0
 11 12  2  0
 12 13  1  0
 13 14  2  0
 13 15  1  0
 15 16  1  0
 16 17  1  0
 17 18  1  0
 18 19  1  0
 19 20  1  0
 20 21  1  0
 21 22  1  0
 22 17  1  0
 12 23  1  0
 23 24  1  0
 24 25  2  0
 25 26  1  0
 26 27  2  0
 27 28  1  0
 27 29  1  0
 29 30  2  0
 30 11  1  0
 30 24  1  0
  7 31  2  0
 31  2  1  0
M  END
> <Smiles>
Cc1cc(C)cc(S(=O)(=O)c2c(C(=O)NCN3CCCCC3)[nH]c3ccc(Cl)cc23)c1

> <IC50_uM>
0.581

> <pIC50>
6.235823868

> <Activity>
1

$$$$

  SciTegic10102310092D

  8  7  0  0  0  0            999 V2000
    3.9000    0.7500    0.0000 C   0  0
    3.9000   -0.7500    0.0000 N   0  0
    2.6000    1.5000    0.0000 N   0  0
    1.3000    0.7500    0.0000 C   0  0
    0.0007    0.0004    0.0000 N   0  0
    5.2000    1.5000    0.0000 N   0  0
    6.5000    0.7500    0.0000 C   0  0
    7.7992    0.0004    0.0000 N   0  0
  1  2  2  0
  1  3  1  0
  3  4  1  0
  4  5  3  0
  1  6  1  0
  6  7  1  0
  7  8  3  0
M  END
> <Smiles>
C(=N)(NC#N)NC#N

> <IC50_uM>
0.588843655

> <pIC50>
6.23

> <Activity>
1

$$$$

  SciTegic10102310092D

 11 12  0  0  0  0            999 V2000
    2.5981   -1.5000    0.0000 O   0  0
    1.2990   -0.7500    0.0000 C   0  0
    1.2990    0.7500    0.0000 C   0  0
    0.0000    1.5000    0.0000 C   0  0
   -1.2990    0.7500    0.0000 C   0  0
   -2.5981    1.5000    0.0000 C   0  0
   -3.8971    0.7500    0.0000 C   0  0
   -3.8971   -0.7500    0.0000 C   0  0
   -2.5981   -1.5000    0.0000 C   0  0
   -1.2990   -0.7500    0.0000 C   0  0
    0.0000   -1.5000    0.0000 O   0  0
  1  2  2  0
  2  3  1  0
  3  4  2  0
  4  5  1  0
  5  6  2  0
  6  7  1  0
  7  8  2  0
  8  9  1  0
  5 10  1  0
 10  9  2  0
 10 11  1  0
 11  2  1  0
M  END
> <Smiles>
O=C1C=Cc(cccc2)c2O1

> <IC50_uM>
0.588843655

> <pIC50>
6.23

> <Activity>
1

$$$$

  SciTegic10102310092D

 11 12  0  0  0  0            999 V2000
    2.5981   -1.5000    0.0000 O   0  0
    1.2990   -0.7500    0.0000 C   0  0
    1.2990    0.7500    0.0000 C   0  0
    0.0000    1.5000    0.0000 C   0  0
   -1.2990    0.7500    0.0000 C   0  0
   -2.5981    1.5000    0.0000 C   0  0
   -3.8971    0.7500    0.0000 C   0  0
   -3.8971   -0.7500    0.0000 C   0  0
   -2.5981   -1.5000    0.0000 C   0  0
   -1.2990   -0.7500    0.0000 C   0  0
    0.0000   -1.5000    0.0000 O   0  0
  1  2  2  0
  2  3  1  0
  3  4  1  0
  4  5  1  0
  5  6  2  0
  6  7  1  0
  7  8  2  0
  8  9  1  0
  5 10  1  0
 10  9  2  0
 10 11  1  0
 11  2  1  0
M  END
> <Smiles>
O=C1CCc(cccc2)c2O1

> <IC50_uM>
0.588843655

> <pIC50>
6.23

> <Activity>
1

$$$$

  SciTegic10102310092D

 11 12  0  0  0  0            999 V2000
    2.5981   -1.5000    0.0000 C   0  0
    1.2990   -0.7500    0.0000 C   0  0
    1.2990    0.7500    0.0000 C   0  0
    0.0000    1.5000    0.0000 C   0  0
   -1.2990    0.7500    0.0000 N   0  0
   -1.2990   -0.7500    0.0000 N   0  0
   -2.4133   -1.7530    0.0000 N   0  0
   -1.8032   -3.1233    0.0000 N   0  0
   -0.3114   -2.9665    0.0000 C   0  0
    0.0000   -1.5000    0.0000 C   0  0
    0.0000    3.0000    0.0000 C   0  0
  1  2  1  0
  2  3  2  0
  3  4  1  0
  4  5  2  0
  5  6  1  0
  6  7  1  0
  7  8  2  0
  8  9  1  0
  6 10  1  0
 10  2  1  0
 10  9  2  0
  4 11  1  0
M  END
> <Smiles>
Cc1cc(nn(nnc2)c12)C

> <IC50_uM>
0.588843655

> <pIC50>
6.23

> <Activity>
1

$$$$

  SciTegic10102310092D

  9 10  0  0  0  0            999 V2000
    1.6317   -2.2458    0.0000 O   0  0
    0.7500   -1.0323    0.0000 C   0  0
    1.2135    0.3943    0.0000 O   0  0
    0.0000    1.2760    0.0000 C   0  0  3  0  0  0
   -0.4623    2.7009    0.0000 C   0  0
   -1.9623    2.7008    0.0000 S   0  0
   -2.4258    1.2743    0.0000 C   0  0
   -1.2135    0.3943    0.0000 C   0  0  3  0  0  0
   -0.7500   -1.0323    0.0000 O   0  0
  1  2  2  0
  2  3  1  0
  4  3  1  4
  4  5  1  0
  5  6  1  0
  6  7  1  0
  4  8  1  0
  8  7  1  4
  8  9  1  0
  9  2  1  0
M  END
> <Smiles>
O=C1OC(CSC2)C2O1

> <IC50_uM>
0.588843655

> <pIC50>
6.23

> <Activity>
1

$$$$

  SciTegic10102310092D

  9  9  0  0  0  0            999 V2000
    2.5973   -1.5031    0.0000 N   0  0
    1.2990   -0.7500    0.0000 C   0  0
    1.2990    0.7500    0.0000 N   0  0
    0.0000    1.5000    0.0000 C   0  0
   -1.2990    0.7500    0.0000 C   0  0
   -1.2990   -0.7500    0.0000 N   0  0
    0.0000   -1.5000    0.0000 C   0  0
    2.5951   -3.0039    0.0000 N   0  0
    3.8926   -3.7566    0.0000 O   0  0
  1  2  1  0
  2  3  2  0
  3  4  1  0
  4  5  2  0
  5  6  1  0
  6  7  2  0
  7  2  1  0
  1  8  1  0
  8  9  2  0
M  END
> <Smiles>
N(c1nccnc1)N=O

> <IC50_uM>
0.588843655

> <pIC50>
6.23

> <Activity>
1

$$$$

  SciTegic10102310092D

 10  9  0  0  0  0            999 V2000
    5.2000    0.0000    0.0000 C   0  0
    3.9000    0.7500    0.0000 C   0  0
    2.6000    0.0000    0.0000 C   0  0  3  0  0  0
    1.3000    0.7500    0.0000 C   0  0
    1.3000    2.2500    0.0000 O   0  0
    0.0007    0.0004    0.0000 O   0  0
    2.6000   -1.5000    0.0000 N   0  0
    6.5000    0.7500    0.0000 C   0  0
    6.5000    2.2500    0.0000 O   0  0
    7.7992    0.0004    0.0000 O   0  0
  1  2  1  0
  2  3  1  0
  3  4  1  0
  4  5  1  0
  4  6  2  0
  3  7  1  4
  1  8  1  0
  8  9  1  0
  8 10  2  0
M  END
> <Smiles>
C(CC(C(O)=O)N)C(O)=O

> <IC50_uM>
0.588843655

> <pIC50>
6.23

> <Activity>
1

$$$$

  SciTegic10102310092D

  9  8  0  0  0  0            999 V2000
    0.0007    0.0004    0.0000 N   0  0
    1.3000    0.7500    0.0000 C   0  0
    2.6000    0.0000    0.0000 C   0  0
    3.9000    0.7500    0.0000 S   0  0
    5.2000    0.0000    0.0000 C   0  0
    6.5000    0.7500    0.0000 C   0  0
    7.7999    0.0000    0.0000 C   0  0
    7.7999   -1.5000    0.0000 O   0  0
    9.0992    0.7496    0.0000 O   0  0
  1  2  1  0
  2  3  1  0
  3  4  1  0
  4  5  1  0
  5  6  2  0
  6  7  1  0
  7  8  1  0
  7  9  2  0
M  END
> <Smiles>
NCCS\C=C\C(O)=O

> <IC50_uM>
0.588843655

> <pIC50>
6.23

> <Activity>
1

$$$$

  SciTegic10102310092D

  9  9  0  0  0  0            999 V2000
   -0.7500   -0.4330    0.0000 C   0  0
    0.7500   -0.4330    0.0000 C   0  0
    0.0000    0.8660    0.0000 C   0  0
   -0.0032    2.3561    0.0000 C   0  0
   -1.3041    3.1045    0.0000 C   0  0
   -1.3073    4.6054    0.0000 O   0  0
   -2.6075    5.3534    0.0000 C   0  0
   -2.6018    2.3522    0.0000 O   0  0
    1.2944    3.1085    0.0000 Cl  0  0
  1  2  1  0
  2  3  1  0
  3  1  1  0
  3  4  2  0
  4  5  1  0
  5  6  1  0
  6  7  1  0
  5  8  2  0
  4  9  1  0
M  END
> <Smiles>
C1CC1=C(C(OC)=O)Cl

> <IC50_uM>
0.588843655

> <pIC50>
6.23

> <Activity>
1

$$$$

  SciTegic10102310092D

 10  9  0  0  0  0            999 V2000
    6.5000    2.2500    0.0000 C   0  0
    6.5000    0.7500    0.0000 N   0  0
    5.2000    0.0000    0.0000 C   0  0
    3.9000    0.7500    0.0000 C   0  0
    2.6000    0.0000    0.0000 C   0  0
    1.3000    0.7500    0.0000 C   0  0
    0.0007    0.0004    0.0000 O   0  0
    5.2000   -1.5000    0.0000 O   0  0
    7.7999    0.0000    0.0000 O   0  0
    9.0992    0.7496    0.0000 C   0  0
  1  2  1  0
  2  3  1  0
  3  4  1  0
  4  5  1  0
  5  6  1  0
  6  7  1  0
  3  8  2  0
  2  9  1  0
  9 10  1  0
M  END
> <Smiles>
CN(C(CCCO)=O)OC

> <IC50_uM>
0.588843655

> <pIC50>
6.23

> <Activity>
1

$$$$

  SciTegic10102310092D

 11 12  0  0  0  0            999 V2000
    3.2676   -2.7548    0.0000 N   0  0
    3.2411   -4.2545    0.0000 C   0  0
    4.0197   -1.4569    0.0000 N   0  0
    5.3077   -0.6882    0.0000 C   0  0
    2.5987   -1.5004    0.0000 C   0  0
    1.2990   -0.7500    0.0000 C   0  0
    1.2990    0.7500    0.0000 C   0  0
    0.0000    1.5000    0.0000 C   0  0
   -1.2990    0.7500    0.0000 C   0  0
   -1.2990   -0.7500    0.0000 C   0  0
    0.0000   -1.5000    0.0000 C   0  0
  1  2  1  0
  1  3  1  0
  3  4  1  0
  3  5  1  0
  5  1  1  0
  5  6  1  0
  6  7  2  0
  7  8  1  0
  8  9  2  0
  9 10  1  0
 10 11  2  0
 11  6  1  0
M  END
> <Smiles>
N1(C)N(C)C1c2ccccc2

> <IC50_uM>
0.588843655

> <pIC50>
6.23

> <Activity>
1

$$$$

  SciTegic10102310092D

 16 17  0  0  0  0            999 V2000
    5.2526   -1.3618    0.0000 O   0  0
    3.8990   -0.7455    0.0000 C   0  0  3  0  0  0
    2.6003   -1.4977    0.0000 C   0  0
    1.2990   -0.7500    0.0000 N   0  0
    1.2990    0.7500    0.0000 C   0  0
    0.0000    1.5000    0.0000 C   0  0
   -1.2990    0.7500    0.0000 C   0  0
   -2.5981    1.5000    0.0000 O   0  0
   -1.2990   -0.7500    0.0000 N   0  0
    0.0000   -1.5000    0.0000 C   0  0
    0.0000   -3.0000    0.0000 O   0  0
    4.0317    0.7359    0.0000 O   0  0
    5.4979    1.0528    0.0000 C   0  0
    6.2524   -0.2436    0.0000 C   0  0  3  0  0  0
    7.7426   -0.3981    0.0000 C   0  0
    8.3555   -1.7672    0.0000 O   0  0
  1  2  1  0
  2  3  1  4
  3  4  1  0
  4  5  1  0
  5  6  2  0
  6  7  1  0
  7  8  2  0
  7  9  1  0
  4 10  1  0
 10  9  1  0
 10 11  2  0
  2 12  1  0
 12 13  1  0
 13 14  1  0
 14  1  1  0
 14 15  1  4
 15 16  1  0
M  END
> <Smiles>
O1C(CN(C=CC(=O)N2)C2=O)OCC1CO

> <IC50_uM>
0.588843655

> <pIC50>
6.23

> <Activity>
1

$$$$

  SciTegic10102310092D

  8  8  0  0  0  0            999 V2000
    0.7500   -1.0323    0.0000 C   0  0  3  0  0  0
    1.6317   -2.2458    0.0000 C   0  0
    1.2135    0.3943    0.0000 C   0  0  3  0  0  0
    2.6401    0.8578    0.0000 C   0  0
    0.0000    1.2760    0.0000 S   0  0
   -1.2135    0.3943    0.0000 C   0  0
   -2.6401    0.8578    0.0000 O   0  0
   -0.7500   -1.0323    0.0000 S   0  0
  1  2  1  4
  1  3  1  0
  3  4  1  4
  3  5  1  0
  5  6  1  0
  6  7  2  0
  6  8  1  0
  8  1  1  0
M  END
> <Smiles>
C1(C)C(C)SC(=O)S1

> <IC50_uM>
0.588843655

> <pIC50>
6.23

> <Activity>
1

$$$$

  SciTegic10102310092D

 24 26  0  0  0  0            999 V2000
   -0.6923   -4.0811    0.0000 C   0  0
    0.3114   -2.9665    0.0000 C   0  0
    1.8032   -3.1233    0.0000 N   0  0
    2.4133   -1.7530    0.0000 C   0  0
    3.8794   -1.4442    0.0000 C   0  0
    4.8823   -2.5608    0.0000 C   0  0
    6.3509   -2.2515    0.0000 C   0  0
    7.3538   -3.3681    0.0000 C   0  0
    8.8224   -3.0588    0.0000 C   0  0
    9.8253   -4.1753    0.0000 C   0  0
   11.2939   -3.8660    0.0000 C   0  0
   11.7596   -2.4402    0.0000 O   0  0
   12.2967   -4.9826    0.0000 C   0  0
   13.7650   -4.6756    0.0000 C   0  0
   14.7651   -5.7936    0.0000 C   0  0
   14.2969   -7.2187    0.0000 C   0  0
   12.8286   -7.5258    0.0000 C   0  0
   11.8286   -6.4078    0.0000 C   0  0
    1.2990   -0.7500    0.0000 N   0  0
    1.2990    0.7500    0.0000 N   0  0
    0.0000    1.5000    0.0000 C   0  0
   -1.2990    0.7500    0.0000 C   0  0
   -1.2990   -0.7500    0.0000 C   0  0
    0.0000   -1.5000    0.0000 C   0  0
  1  2  1  0
  2  3  1  0
  3  4  2  0
  4  5  1  0
  5  6  1  0
  6  7  1  0
  7  8  1  0
  8  9  1  0
  9 10  1  0
 10 11  1  0
 11 12  2  0
 11 13  1  0
 13 14  2  0
 14 15  1  0
 15 16  2  0
 16 17  1  0
 17 18  2  0
 18 13  1  0
  4 19  1  0
 19 20  1  0
 20 21  2  0
 21 22  1  0
 22 23  2  0
 23 24  1  0
 24  2  2  0
 24 19  1  0
M  END
> <Smiles>
Cc1nc(CCCCCCC(=O)c2ccccc2)n2ncccc12

> <IC50_uM>
0.59

> <pIC50>
6.229147988

> <Activity>
1

$$$$

  SciTegic10102310092D

 36 39  0  0  0  0            999 V2000
    2.5981   -1.5000    0.0000 C   0  0
    1.2990   -0.7500    0.0000 C   0  0
    1.2990    0.7500    0.0000 C   0  0
    0.0000    1.5000    0.0000 C   0  0
   -1.2990    0.7500    0.0000 C   0  0
   -2.5987    1.5004    0.0000 C   0  0
   -3.8967    0.7484    0.0000 C   0  0
   -5.1969    1.4963    0.0000 C   0  0
   -5.1993    2.9963    0.0000 C   0  0
   -3.9014    3.7484    0.0000 C   0  0
   -2.6012    3.0004    0.0000 C   0  0
   -1.3042    3.7556    0.0000 S   0  0
   -1.3088    5.2564    0.0000 C   0  0
   -0.0118    6.0116    0.0000 C   0  0
    1.2897    5.2660    0.0000 O   0  0
   -0.0164    7.5125    0.0000 N   0  0
    1.2805    8.2677    0.0000 C   0  0
    2.5809    7.5199    0.0000 C   0  0
    3.8787    8.2720    0.0000 C   0  0
    3.8762    9.7720    0.0000 C   0  0
    5.1747   10.5245    0.0000 C   0  0
    6.4762    9.7788    0.0000 C   0  0
    7.7728   10.5330    0.0000 C   0  0
    7.7679   12.0330    0.0000 C   0  0
    9.0637   12.7903    0.0000 C   0  0
    9.0567   14.2911    0.0000 C   0  0
   10.3517   15.0480    0.0000 O   0  0
    7.7539   15.0346    0.0000 O   0  0
    6.4665   12.7788    0.0000 C   0  0
    5.1699   12.0246    0.0000 C   0  0
    2.5759   10.5199    0.0000 C   0  0
    1.2781    9.7677    0.0000 C   0  0
   -0.0221   10.5156    0.0000 Cl  0  0
   -1.2990   -0.7500    0.0000 C   0  0
   -2.5981   -1.5000    0.0000 Cl  0  0
    0.0000   -1.5000    0.0000 C   0  0
  1  2  1  0
  2  3  2  0
  3  4  1  0
  4  5  2  0
  5  6  1  0
  6  7  2  0
  7  8  1  0
  8  9  2  0
  9 10  1  0
 10 11  2  0
 11  6  1  0
 11 12  1  0
 12 13  1  0
 13 14  1  0
 14 15  2  0
 14 16  1  0
 16 17  1  0
 17 18  2  0
 18 19  1  0
 19 20  2  0
 20 21  1  0
 21 22  2  0
 22 23  1  0
 23 24  2  0
 24 25  1  0
 25 26  1  0
 26 27  2  0
 26 28  1  0
 24 29  1  0
 29 30  2  0
 30 21  1  0
 20 31  1  0
 31 32  2  0
 32 17  1  0
 32 33  1  0
  5 34  1  0
 34 35  1  0
 34 36  2  0
 36  2  1  0
M  END
> <Smiles>
Cc1ccc(-c2ccccc2SCC(=O)Nc2ccc(-c3ccc(CC(=O)O)cc3)cc2Cl)c(Cl)c1

> <IC50_uM>
0.592

> <pIC50>
6.227678293

> <Activity>
1

$$$$

  SciTegic10102310092D

 33 36  0  0  0  0            999 V2000
    3.1676   -7.5606    0.0000 C   0  0
    1.7006   -7.2475    0.0000 C   0  0
    0.6960   -8.3614    0.0000 C   0  0
   -0.7710   -8.0483    0.0000 C   0  0
   -1.7756   -9.1622    0.0000 C   0  0
   -1.2333   -6.6213    0.0000 C   0  0
   -0.2287   -5.5075    0.0000 C   0  0
   -0.6913   -4.0797    0.0000 S   0  0
   -2.1584   -3.7671    0.0000 O   0  0
   -1.6957   -5.1937    0.0000 O   0  0
    0.3114   -2.9665    0.0000 C   0  0
    1.8032   -3.1233    0.0000 C   0  0
    2.5551   -4.4192    0.0000 C   0  0
    1.8074   -5.7196    0.0000 O   0  0
    4.0559   -4.4171    0.0000 N   0  0
    4.8090   -5.7153    0.0000 C   0  0
    6.3098   -5.7131    0.0000 C   0  0
    7.0629   -7.0113    0.0000 N   0  0
    8.5438   -7.1491    0.0000 C   0  0
    8.8557   -8.6163    0.0000 C   0  0
    7.5567   -9.3664    0.0000 C   0  0
    6.4419   -8.3627    0.0000 C   0  0
    2.4133   -1.7530    0.0000 N   0  0
    1.2990   -0.7500    0.0000 C   0  0
    1.2990    0.7500    0.0000 C   0  0
    0.0000    1.5000    0.0000 C   0  0
   -1.2990    0.7500    0.0000 C   0  0
   -2.6003    1.4977    0.0000 N   0  3
   -3.8983    0.7459    0.0000 O   0  0
   -2.6030    2.9977    0.0000 O   0  5
   -1.2990   -0.7500    0.0000 C   0  0
    0.0000   -1.5000    0.0000 C   0  0
    1.2383   -5.8206    0.0000 C   0  0
  1  2  1  0
  2  3  2  0
  3  4  1  0
  4  5  1  0
  4  6  2  0
  6  7  1  0
  7  8  1  0
  8  9  2  0
  8 10  2  0
  8 11  1  0
 11 12  2  0
 12 13  1  0
 13 14  2  0
 13 15  1  0
 15 16  1  0
 16 17  1  0
 17 18  1  0
 18 19  1  0
 19 20  1  0
 20 21  1  0
 21 22  1  0
 22 18  1  0
 12 23  1  0
 23 24  1  0
 24 25  2  0
 25 26  1  0
 26 27  2  0
 27 28  1  0
 28 29  2  0
 28 30  1  0
 27 31  1  0
 31 32  2  0
 32 11  1  0
 32 24  1  0
  7 33  2  0
 33  2  1  0
M  CHG  2  28   1  30  -1
M  END
> <Smiles>
Cc1cc(C)cc(S(=O)(=O)c2c(C(=O)NCCN3CCCC3)[nH]c3ccc([N+](=O)[O-])cc23)c1

> <IC50_uM>
0.594

> <pIC50>
6.226213555

> <Activity>
1

$$$$

  SciTegic10102310092D

 41 44  0  0  1  0            999 V2000
    2.6083  -15.0202    0.0000 C   0  0
    3.9048  -14.2656    0.0000 O   0  0
    3.9005  -12.7648    0.0000 C   0  0
    2.6008  -12.0158    0.0000 C   0  0
    2.5997  -10.5158    0.0000 C   0  0
    3.8981   -9.7648    0.0000 C   0  0
    3.8969   -8.2640    0.0000 S   0  0
    2.5970   -7.5154    0.0000 O   0  0
    3.8950   -6.7640    0.0000 O   0  0
    5.1956   -7.5117    0.0000 N   0  0
    6.4977   -8.2580    0.0000 C   0  0
    7.7956   -7.5043    0.0000 C   0  0
    9.0970   -8.2502    0.0000 C   0  0
    7.7927   -6.5043    0.0000 C   0  0
    5.1944   -6.0109    0.0000 C   0  0
    6.4931   -5.2586    0.0000 C   0  0  1  0  0  0
    7.3597   -5.7577    0.0000 O   0  0
    6.4919   -3.7578    0.0000 C   0  0  2  0  0  0
    5.1929   -3.0062    0.0000 C   0  0
    5.1933   -1.5053    0.0000 C   0  0
    6.4911   -0.7530    0.0000 C   0  0
    6.4885    0.7470    0.0000 C   0  0
    5.1881    1.4948    0.0000 C   0  0
    3.8904    0.7425    0.0000 C   0  0
    3.8930   -0.7575    0.0000 C   0  0
    7.7906   -3.0055    0.0000 N   0  0
    7.7894   -1.5047    0.0000 C   0  0
    6.9228   -1.0057    0.0000 O   0  0
    9.0881   -0.7525    0.0000 C   0  0
    9.0890    0.7476    0.0000 C   0  0
   10.3886    1.4967    0.0000 C   0  0
   11.6871    0.7459    0.0000 C   0  0
   12.9866    1.4951    0.0000 O   0  0
   14.2852    0.7442    0.0000 C   0  0
   15.5847    1.4934    0.0000 O   0  0
   14.2842   -0.7558    0.0000 C   0  0
   12.9847   -1.5049    0.0000 C   0  0
   11.6862   -0.7541    0.0000 C   0  0
   10.3866   -1.5033    0.0000 C   0  0
    5.1977  -10.5138    0.0000 C   0  0
    5.1989  -12.0138    0.0000 C   0  0
  1  2  1  0
  2  3  1  0
  3  4  2  0
  4  5  1  0
  5  6  2  0
  6  7  1  0
  7  8  2  0
  7  9  2  0
  7 10  1  0
 10 11  1  0
 11 12  1  0
 12 13  1  0
 12 14  1  0
 10 15  1  0
 15 16  1  0
 16 17  1  6
 16 18  1  0
 18 19  1  6
 19 20  1  0
 20 21  2  0
 21 22  1  0
 22 23  2  0
 23 24  1  0
 24 25  2  0
 25 20  1  0
 18 26  1  0
 26 27  1  0
 27 28  2  0
 27 29  1  0
 29 30  2  0
 30 31  1  0
 31 32  2  0
 32 33  1  0
 33 34  1  0
 34 35  2  0
 34 36  1  0
 36 37  2  0
 37 38  1  0
 38 32  1  0
 38 39  2  0
 39 29  1  0
  6 40  1  0
 40 41  2  0
 41  3  1  0
M  END
> <Smiles>
COc1ccc(S(=O)(=O)N(CC(C)C)C[C@@H](O)[C@H](Cc2ccccc2)NC(=O)c2ccc3oc(=O)ccc3c2)cc1

> <IC50_uM>
0.5974

> <pIC50>
6.223734782

> <Activity>
1

$$$$

  SciTegic10102310092D

 24 27  0  0  0  0            999 V2000
    3.5145   -2.2320    0.0000 C   0  0
    2.0759   -1.8072    0.0000 C   0  0
    1.6852   -0.3846    0.0000 C   0  0  3  0  0  0
    2.6548    0.7277    0.0000 C   0  0
    4.1268    0.4395    0.0000 C   0  0
    5.1124    1.5703    0.0000 C   0  0
    4.6260    2.9892    0.0000 C   0  0
    3.1539    3.2774    0.0000 C   0  0
    2.6674    4.6963    0.0000 Cl  0  0
    2.1683    2.1466    0.0000 C   0  0
    1.3514    1.0778    0.0000 O   0  0
    0.0000    1.7286    0.0000 C   0  0
    0.1115    3.2255    0.0000 C   0  0
   -1.1278    4.0705    0.0000 C   0  0
   -2.4793    3.4196    0.0000 C   0  0
   -2.5914    1.9238    0.0000 C   0  0
   -1.3515    1.0777    0.0000 C   0  0
   -1.6852   -0.3847    0.0000 N   0  0
   -3.0899   -0.9120    0.0000 C   0  0
   -3.0226   -2.4105    0.0000 C   0  0
   -1.5767   -2.8095    0.0000 C   0  0
   -0.7500   -1.5574    0.0000 C   0  0
    0.7500   -1.5574    0.0000 C   0  0
    1.4008   -2.9088    0.0000 O   0  0
  1  2  1  0
  3  2  1  4
  3  4  1  0
  4  5  2  0
  5  6  1  0
  6  7  2  0
  7  8  1  0
  8  9  1  0
  8 10  2  0
 10  4  1  0
  3 11  1  0
 11 12  1  0
 12 13  2  0
 13 14  1  0
 14 15  2  0
 15 16  1  0
 16 17  2  0
 17 12  1  0
 17 18  1  0
 18 19  1  0
 19 20  2  0
 20 21  1  0
 21 22  2  0
 22 18  1  0
 22 23  1  0
 23  3  1  0
 23 24  2  0
M  END
> <Smiles>
CCC1(c2cccc(Cl)c2)Oc2ccccc2-n2cccc2C1=O

> <IC50_uM>
0.6

> <pIC50>
6.22184875

> <Activity>
1

$$$$

  SciTegic10102310092D

 18 19  0  0  1  0            999 V2000
    4.6478    4.1412    0.0000 C   0  0
    4.9837    2.6793    0.0000 C   0  0
    6.4178    2.2396    0.0000 C   0  0
    3.8856    1.6562    0.0000 C   0  0  1  0  0  0
    4.2194    0.1938    0.0000 C   0  0
    3.1198   -0.8265    0.0000 C   0  0
    1.6852   -0.3846    0.0000 C   0  0
    1.3514    1.0778    0.0000 C   0  0
    0.0000    1.7286    0.0000 C   0  0
    0.0000    3.2286    0.0000 C   0  0
   -1.3515    1.0777    0.0000 C   0  0
   -1.6852   -0.3847    0.0000 C   0  0
   -3.1476   -0.7184    0.0000 O   0  0
   -0.7500   -1.5574    0.0000 C   0  0
   -1.4008   -2.9088    0.0000 O   0  0
    0.7500   -1.5574    0.0000 C   0  0
    1.4008   -2.9088    0.0000 O   0  0
    2.4522    2.0983    0.0000 C   0  0
  1  2  2  0
  2  3  1  0
  4  2  1  1
  4  5  1  0
  5  6  1  0
  6  7  1  0
  7  8  1  0
  8  9  2  0
  9 10  1  0
  9 11  1  0
 11 12  2  0
 12 13  1  0
 12 14  1  0
 14 15  2  0
 14 16  1  0
 16  7  2  0
 16 17  1  0
  8 18  1  0
 18  4  1  0
M  END
> <Smiles>
C=C(C)[C@H]1CCc2c(c(C)cc(O)c(=O)c2O)C1

> <IC50_uM>
0.6

> <pIC50>
6.22184875

> <Activity>
1

$$$$

  SciTegic10102310092D

  9  8  0  0  0  0            999 V2000
    2.6000    0.0000    0.0000 C   0  0  3  0  0  0
    2.6000   -1.5000    0.0000 N   0  0
    1.3000    0.7500    0.0000 C   0  0
    1.3000    2.2500    0.0000 O   0  0
    0.0007    0.0004    0.0000 O   0  0
    3.9000    0.7500    0.0000 C   0  0
    5.1992    0.0004    0.0000 S   0  0
    3.9000    2.2500    0.0000 C   0  0
    5.1989    1.5002    0.0000 C   0  0
  1  2  1  4
  1  3  1  0
  3  4  1  0
  3  5  2  0
  1  6  1  0
  6  7  1  0
  6  8  1  0
  6  9  1  0
M  END
> <Smiles>
C(N)(C(O)=O)C(S)(C)C

> <IC50_uM>
0.602559586

> <pIC50>
6.22

> <Activity>
1

$$$$

  SciTegic10102310092D

 11 12  0  0  0  0            999 V2000
   -0.6923   -4.0811    0.0000 O   0  0
    0.3114   -2.9665    0.0000 C   0  0
    1.8032   -3.1233    0.0000 O   0  0
    2.4133   -1.7530    0.0000 C   0  0
    1.2990   -0.7500    0.0000 C   0  0
    1.2990    0.7500    0.0000 C   0  0
    0.0000    1.5000    0.0000 C   0  0
   -1.2990    0.7500    0.0000 N   0  3
   -2.5981    1.5000    0.0000 O   0  5
   -1.2990   -0.7500    0.0000 C   0  0
    0.0000   -1.5000    0.0000 C   0  0
  1  2  2  0
  2  3  1  0
  3  4  1  0
  4  5  1  0
  5  6  2  0
  6  7  1  0
  7  8  2  0
  8  9  1  0
  8 10  1  0
  5 11  1  0
 11  2  1  0
 11 10  2  0
M  CHG  2   8   1   9  -1
M  END
> <Smiles>
O=C1OCc(cc[n+]([O-])c2)c12

> <IC50_uM>
0.602559586

> <pIC50>
6.22

> <Activity>
1

$$$$

  SciTegic10102310092D

 11 12  0  0  0  0            999 V2000
   -0.6923   -4.0811    0.0000 C   0  0
    0.3114   -2.9665    0.0000 C   0  0
    1.8032   -3.1233    0.0000 N   0  0
    2.4133   -1.7530    0.0000 C   0  0
    1.2990   -0.7500    0.0000 C   0  0
    1.2990    0.7500    0.0000 C   0  0
    0.0000    1.5000    0.0000 N   0  3
    0.0000    3.0000    0.0000 O   0  5
   -1.2990    0.7500    0.0000 C   0  0
   -1.2990   -0.7500    0.0000 C   0  0
    0.0000   -1.5000    0.0000 N   0  0
  1  2  1  0
  2  3  2  0
  3  4  1  0
  4  5  2  0
  5  6  1  0
  6  7  2  0
  7  8  1  0
  7  9  1  0
  9 10  2  0
  5 11  1  0
 11  2  1  0
 11 10  1  0
M  CHG  2   7   1   8  -1
M  END
> <Smiles>
Cc1ncc(c[n+]([O-])cc2)n12

> <IC50_uM>
0.602559586

> <pIC50>
6.22

> <Activity>
1

$$$$

  SciTegic10102310092D

 11 12  0  0  0  0            999 V2000
    1.2990   -0.7500    0.0000 C   0  0
    1.2990    0.7500    0.0000 C   0  0
    0.0000    1.5000    0.0000 C   0  0
    0.3114    2.9665    0.0000 C   0  0
   -0.6924    4.0811    0.0000 C   0  0
    1.8032    3.1233    0.0000 N   0  0
    2.4133    1.7530    0.0000 O   0  0
   -1.2990    0.7500    0.0000 C   0  0
   -1.2990   -0.7500    0.0000 C   0  0
    0.0000   -1.5000    0.0000 C   0  0
   -2.5981    1.5000    0.0000 O   0  0
  1  2  1  0
  2  3  2  0
  3  4  1  0
  4  5  1  0
  4  6  2  0
  6  7  1  0
  7  2  1  0
  3  8  1  0
  8  9  1  0
  9 10  1  0
 10  1  1  0
  8 11  2  0
M  END
> <Smiles>
C1c2c(c(C)no2)C(CC1)=O

> <IC50_uM>
0.602559586

> <pIC50>
6.22

> <Activity>
1

$$$$

  SciTegic10102310092D

 11 11  0  0  0  0            999 V2000
    0.7500   -1.0323    0.0000 C   0  0
    1.2135    0.3943    0.0000 C   0  0
    0.0000    1.2760    0.0000 C   0  0  3  0  0  0
    0.0031    2.7742    0.0000 C   0  0
    1.3039    3.5228    0.0000 C   0  0
    1.3070    5.0228    0.0000 C   0  0
   -1.2135    0.3943    0.0000 C   0  0
   -2.6401    0.8578    0.0000 O   0  0
   -0.7500   -1.0323    0.0000 N   0  0
   -1.6281   -2.2462    0.0000 C   0  0
   -1.0160   -3.6157    0.0000 C   0  0
  1  2  1  0
  2  3  1  0
  3  4  1  4
  4  5  1  0
  5  6  2  0
  3  7  1  0
  7  8  2  0
  7  9  1  0
  9  1  1  0
  9 10  1  0
 10 11  2  0
M  END
> <Smiles>
C1CC(CC=C)C(=O)N1C=C

> <IC50_uM>
0.602559586

> <pIC50>
6.22

> <Activity>
1

$$$$

  SciTegic10102310092D

 31 33  0  0  0  0            999 V2000
    1.2990   -0.7500    0.0000 C   0  0
    2.6003   -1.4977    0.0000 C   0  0
    2.6030   -2.9977    0.0000 O   0  0
    3.8983   -0.7459    0.0000 O   0  0
    1.2990    0.7500    0.0000 C   0  0
    0.0000    1.5000    0.0000 C   0  0
   -0.0031    3.0008    0.0000 C   0  0
   -1.3039    3.7494    0.0000 C   0  0
   -1.3092    5.2494    0.0000 C   0  0
   -2.6108    5.9949    0.0000 C   0  0
   -2.6130    7.4957    0.0000 C   0  0
   -3.9133    8.2435    0.0000 O   0  0
   -1.3154    8.2484    0.0000 O   0  0
   -3.9073    5.2404    0.0000 C   0  0
   -3.9021    3.7404    0.0000 C   0  0
   -2.6005    2.9949    0.0000 C   0  0
   -5.2089    5.9859    0.0000 O   0  0
    1.2953    3.7535    0.0000 C   0  0
    1.2948    5.2536    0.0000 C   0  0
    2.5936    6.0040    0.0000 C   0  0
    2.5899    7.5049    0.0000 C   0  0
    3.8873    8.2576    0.0000 O   0  0
    1.2895    8.2525    0.0000 O   0  0
    3.8929    5.2545    0.0000 C   0  0
    5.1916    6.0050    0.0000 O   0  0
    3.8935    3.7545    0.0000 C   0  0
    2.5947    3.0040    0.0000 C   0  0
   -1.2990    0.7500    0.0000 C   0  0
   -1.2990   -0.7500    0.0000 C   0  0
    0.0000   -1.5000    0.0000 C   0  0
    0.0000   -3.0000    0.0000 O   0  0
  1  2  1  0
  2  3  1  0
  2  4  2  0
  1  5  2  0
  5  6  1  0
  6  7  1  0
  7  8  1  0
  8  9  2  0
  9 10  1  0
 10 11  1  0
 11 12  1  0
 11 13  2  0
 10 14  2  0
 14 15  1  0
 15 16  2  0
 16  8  1  0
 14 17  1  0
  7 18  2  0
 18 19  1  0
 19 20  2  0
 20 21  1  0
 21 22  1  0
 21 23  2  0
 20 24  1  0
 24 25  2  0
 24 26  1  0
 26 27  2  0
 27 18  1  0
  6 28  2  0
 28 29  1  0
 29 30  2  0
 30  1  1  0
 30 31  1  0
M  END
> <Smiles>
c1(C(O)=O)cc(C(c2cc(C(O)=O)c(cc2)O)=C3C=C(C(O)=O)C(=O)C=C3)ccc1O

> <IC50_uM>
0.602559586

> <pIC50>
6.22

> <Activity>
1

$$$$

  SciTegic10102310092D

 11 12  0  0  0  0            999 V2000
    1.2990   -0.7500    0.0000 C   0  0
    2.5981   -1.5000    0.0000 O   0  0
    1.2990    0.7500    0.0000 C   0  0
    0.0000    1.5000    0.0000 C   0  0
    0.0000    3.0000    0.0000 O   0  0
   -1.2990    0.7500    0.0000 N   0  0
   -2.7248    1.2135    0.0000 C   0  0
   -3.6065    0.0000    0.0000 C   0  0
   -2.7248   -1.2135    0.0000 C   0  0
   -1.2990   -0.7500    0.0000 C   0  0
    0.0000   -1.5000    0.0000 C   0  0
  1  2  1  0
  1  3  2  0
  3  4  1  0
  4  5  2  0
  4  6  1  0
  6  7  1  0
  7  8  1  0
  8  9  1  0
  6 10  1  0
 10  9  1  0
 10 11  2  0
 11  1  1  0
M  END
> <Smiles>
C1(O)=CC(=O)N(CCC2)C2=C1

> <IC50_uM>
0.602559586

> <pIC50>
6.22

> <Activity>
1

$$$$

  SciTegic10102310092D

 11 13  0  0  0  0            999 V2000
    3.1752   -2.3024    0.0000 C   0  0
    1.9563   -1.4296    0.0000 C   0  0  3  0  0  0
    0.4514   -1.4296    0.0000 N   0  0
    0.0000    0.0000    0.0000 C   0  0
   -1.4225    0.4760    0.0000 O   0  0
    1.2039    0.8578    0.0000 C   0  0
    2.4228    0.0000    0.0000 C   0  0  3  0  0  0
    3.9276    0.0000    0.0000 C   0  0
    5.3121    0.6019    0.0000 C   0  0
    4.0931    1.4898    0.0000 C   0  0
    4.3941   -1.4296    0.0000 C   0  0
  2  1  1  4
  2  3  1  0
  3  4  1  0
  4  5  2  0
  4  6  1  0
  2  7  1  0
  7  6  1  4
  7  8  1  0
  8  9  1  0
  9 10  1  0
 10  8  1  0
  8 11  1  0
 11  1  1  0
M  END
> <Smiles>
C1C(NC(=O)C2)C2C3(CC3)C1

> <IC50_uM>
0.602559586

> <pIC50>
6.22

> <Activity>
1

$$$$

  SciTegic10102310092D

 11 11  0  0  0  0            999 V2000
    1.2990   -0.7500    0.0000 C   0  0
    1.2990    0.7500    0.0000 C   0  0
    2.5972    1.5031    0.0000 C   0  0
    2.5951    3.0039    0.0000 N   0  0
    1.2948    3.7517    0.0000 C   0  0
    3.8926    3.7566    0.0000 O   0  0
    3.8976    0.7554    0.0000 O   0  0
    0.0000    1.5000    0.0000 C   0  0
   -1.2990    0.7500    0.0000 C   0  0
   -1.2990   -0.7500    0.0000 C   0  0
    0.0000   -1.5000    0.0000 C   0  0
  1  2  2  0
  2  3  1  0
  3  4  1  0
  4  5  1  0
  4  6  1  0
  3  7  2  0
  2  8  1  0
  8  9  2  0
  9 10  1  0
 10 11  2  0
 11  1  1  0
M  END
> <Smiles>
c1c(C(N(C)O)=O)cccc1

> <IC50_uM>
0.602559586

> <pIC50>
6.22

> <Activity>
1

$$$$

  SciTegic10102310092D

 26 28  0  0  0  0            999 V2000
    2.5981   -1.5000    0.0000 C   0  0
    1.2990   -0.7500    0.0000 C   0  0
    1.2990    0.7500    0.0000 C   0  0
    2.5981    1.5000    0.0000 N   0  0
    0.0000    1.5000    0.0000 N   0  0
   -1.2990    0.7500    0.0000 C   0  0
   -2.6003    1.4977    0.0000 N   0  0
   -3.8990    0.7455    0.0000 C   0  0
   -5.2007    1.4909    0.0000 C   0  0
   -6.4972    0.7364    0.0000 C   0  0
   -6.4920   -0.7636    0.0000 C   0  0
   -7.7891   -1.5185    0.0000 C   0  0
   -9.0855   -2.2730    0.0000 N   0  0
   -5.1903   -1.5091    0.0000 C   0  0
   -3.8939   -0.7546    0.0000 C   0  0
   -1.2990   -0.7500    0.0000 N   0  0
    0.0000   -1.5000    0.0000 C   0  0
   -0.0031   -3.0008    0.0000 C   0  0
   -1.3039   -3.7494    0.0000 C   0  0
   -1.3092   -5.2494    0.0000 C   0  0
   -0.0128   -6.0039    0.0000 F   0  0
   -2.6108   -5.9949    0.0000 C   0  0
   -3.9072   -5.2404    0.0000 C   0  0
   -3.9020   -3.7404    0.0000 C   0  0
   -2.6004   -2.9949    0.0000 C   0  0
   -2.5953   -1.4949    0.0000 F   0  0
  1  2  1  0
  2  3  2  0
  3  4  1  0
  3  5  1  0
  5  6  2  0
  6  7  1  0
  7  8  1  0
  8  9  2  0
  9 10  1  0
 10 11  2  0
 11 12  1  0
 12 13  3  0
 11 14  1  0
 14 15  2  0
 15  8  1  0
  6 16  1  0
 16 17  2  0
 17  2  1  0
 17 18  1  0
 18 19  1  0
 19 20  2  0
 20 21  1  0
 20 22  1  0
 22 23  2  0
 23 24  1  0
 24 25  2  0
 25 19  1  0
 25 26  1  0
M  END
> <Smiles>
Cc1c(N)nc(Nc2ccc(C#N)cc2)nc1Cc1c(F)cccc1F

> <IC50_uM>
0.603

> <pIC50>
6.219682688

> <Activity>
1

$$$$

  SciTegic10102310092D

 19 20  0  0  1  0            999 V2000
    6.1533    0.7377    0.0000 C   0  0
    5.5397   -0.6311    0.0000 C   0  0
    4.9531   -1.9978    0.0000 C   0  0  2  0  0  0
    5.8076   -3.2156    0.0000 C   0  0
    5.4010   -4.1292    0.0000 O   0  0
    3.9511   -0.8815    0.0000 O   0  0
    2.5987   -1.5004    0.0000 C   0  0  1  0  0  0
    1.2990   -0.7500    0.0000 N   0  0
    1.2990    0.7500    0.0000 C   0  0
    0.0000    1.5000    0.0000 C   0  0
    0.0000    3.0000    0.0000 C   0  0
   -1.2990    0.7500    0.0000 C   0  0
   -2.5981    1.5000    0.0000 O   0  0
   -1.2990   -0.7500    0.0000 N   0  0
    0.0000   -1.5000    0.0000 C   0  0
    0.0000   -3.0000    0.0000 O   0  0
    2.7343   -2.9815    0.0000 C   0  0
    4.2010   -3.2956    0.0000 C   0  0  2  0  0  0
    4.6063   -4.2098    0.0000 O   0  0
  1  2  3  0
  3  2  1  1
  3  4  1  0
  4  5  1  0
  3  6  1  0
  6  7  1  0
  7  8  1  6
  8  9  1  0
  9 10  2  0
 10 11  1  0
 10 12  1  0
 12 13  2  0
 12 14  1  0
 14 15  1  0
 15  8  1  0
 15 16  2  0
  7 17  1  0
 17 18  1  0
 18  3  1  0
 18 19  1  1
M  END
> <Smiles>
C#C[C@]1(CO)O[C@@H](n2cc(C)c(=O)[nH]c2=O)C[C@@H]1O

> <IC50_uM>
0.61

> <pIC50>
6.214670165

> <Activity>
1

$$$$

  SciTegic10102310092D

 11 11  0  0  0  0            999 V2000
    2.6003   -1.4977    0.0000 C   0  0
    1.2990   -0.7500    0.0000 C   0  0
    1.2990    0.7500    0.0000 C   0  0
    0.0000    1.5000    0.0000 C   0  0
   -1.2990    0.7500    0.0000 C   0  0
   -2.5981    1.5000    0.0000 C   0  0
   -1.2990   -0.7500    0.0000 C   0  0
    0.0000   -1.5000    0.0000 C   0  0
    0.0000   -3.0000    0.0000 O   0  0
    2.6030   -2.9977    0.0000 O   0  0
    3.8983   -0.7459    0.0000 O   0  0
  1  2  1  0
  2  3  2  0
  3  4  1  0
  4  5  2  0
  5  6  1  0
  5  7  1  0
  7  8  2  0
  8  2  1  0
  8  9  1  0
  1 10  1  0
  1 11  2  0
M  END
> <Smiles>
C(c1ccc(C)cc1O)(O)=O

> <IC50_uM>
0.616595002

> <pIC50>
6.21

> <Activity>
1

$$$$

  SciTegic10102310092D

 11 11  0  0  0  0            999 V2000
    2.6003   -1.4977    0.0000 C   0  0
    1.2990   -0.7500    0.0000 C   0  0
    1.2990    0.7500    0.0000 C   0  0
    0.0000    1.5000    0.0000 C   0  0
   -1.2990    0.7500    0.0000 C   0  0
   -1.2990   -0.7500    0.0000 C   0  0
    0.0000   -1.5000    0.0000 C   0  0
    0.0000   -3.0000    0.0000 C   0  0
    0.0000    3.0000    0.0000 O   0  0
    2.6030   -2.9977    0.0000 O   0  0
    3.8983   -0.7459    0.0000 O   0  0
  1  2  1  0
  2  3  2  0
  3  4  1  0
  4  5  2  0
  5  6  1  0
  6  7  2  0
  7  2  1  0
  7  8  1  0
  4  9  1  0
  1 10  1  0
  1 11  2  0
M  END
> <Smiles>
C(c1cc(ccc1C)O)(O)=O

> <IC50_uM>
0.616595002

> <pIC50>
6.21

> <Activity>
1

$$$$

  SciTegic10102310092D

  9 10  0  0  0  0            999 V2000
    1.2990   -0.7500    0.0000 C   0  0
    1.2990    0.7500    0.0000 C   0  0
    0.0000    1.5000    0.0000 C   0  0
   -1.2990    0.7500    0.0000 C   0  0
   -1.2990   -0.7500    0.0000 C   0  0
    0.0000   -1.5000    0.0000 C   0  0
    2.7248    1.2135    0.0000 N   0  0
    3.6065    0.0000    0.0000 O   0  0
    2.7248   -1.2135    0.0000 C   0  0
  1  2  1  0
  2  3  1  0
  3  4  1  0
  4  5  1  0
  5  6  1  0
  6  1  1  0
  2  7  2  0
  7  8  1  0
  8  9  1  0
  9  1  2  0
M  END
> <Smiles>
c12c(CCCC1)noc2

> <IC50_uM>
0.616595002

> <pIC50>
6.21

> <Activity>
1

$$$$

  SciTegic10102310092D

 11 12  0  0  0  0            999 V2000
    0.1194   -2.3933    0.0000 C   0  0
    0.7500   -1.0323    0.0000 C   0  0
    1.2135    0.3943    0.0000 C   0  0
    0.0000    1.2760    0.0000 C   0  0  3  0  0  0
    0.0000    2.7760    0.0000 C   0  0
   -1.2135    0.3943    0.0000 N   0  0
   -0.7500   -1.0323    0.0000 C   0  0
   -1.9615   -1.9133    0.0000 N   0  0
   -3.1750   -1.0316    0.0000 C   0  0
   -2.7115    0.3949    0.0000 C   0  0
    2.2393   -0.8534    0.0000 C   0  0
  1  2  1  0
  2  3  1  0
  3  4  1  0
  4  5  1  4
  4  6  1  0
  6  7  1  0
  7  2  1  0
  7  8  2  0
  8  9  1  0
  9 10  1  0
 10  6  1  0
  2 11  1  0
M  END
> <Smiles>
CC1(CC(C)N2C1=NCC2)C

> <IC50_uM>
0.616595002

> <pIC50>
6.21

> <Activity>
1

$$$$

  SciTegic10102310092D

 11 11  0  0  0  0            999 V2000
    2.6003   -1.4977    0.0000 C   0  0
    1.2990   -0.7500    0.0000 C   0  0
    1.2990    0.7500    0.0000 N   0  0
    0.0000    1.5000    0.0000 C   0  0
   -1.2990    0.7500    0.0000 N   0  0
   -1.2990   -0.7500    0.0000 C   0  0
    0.0000   -1.5000    0.0000 C   0  0
    0.0000   -3.0000    0.0000 N   0  0
    0.0000    3.0000    0.0000 C   0  0
    2.6030   -2.9977    0.0000 O   0  0
    3.8983   -0.7459    0.0000 O   0  0
  1  2  1  0
  2  3  2  0
  3  4  1  0
  4  5  2  0
  5  6  1  0
  6  7  2  0
  7  2  1  0
  7  8  1  0
  4  9  1  0
  1 10  1  0
  1 11  2  0
M  END
> <Smiles>
C(c1nc(ncc1N)C)(O)=O

> <IC50_uM>
0.616595002

> <pIC50>
6.21

> <Activity>
1

$$$$

  SciTegic10102310092D

 11 10  0  0  0  0            999 V2000
    3.9000    0.7500    0.0000 C   0  0
    3.9000   -0.7500    0.0000 N   0  0
    2.6000    1.5000    0.0000 N   0  0
    1.3000    0.7500    0.0000 C   0  0
    0.0007    0.0004    0.0000 N   0  0
    5.2000    1.5000    0.0000 N   0  0
    6.5000    0.7500    0.0000 C   0  0
    6.5000   -0.7500    0.0000 O   0  0
    7.7999    1.5000    0.0000 C   0  0
    9.0992    0.7504    0.0000 C   0  0
    7.7999    3.0000    0.0000 C   0  0
  1  2  2  0
  1  3  1  0
  3  4  1  0
  4  5  3  0
  1  6  1  0
  6  7  1  0
  7  8  2  0
  7  9  1  0
  9 10  2  0
  9 11  1  0
M  END
> <Smiles>
C(=N)(NC#N)NC(=O)C(=C)C

> <IC50_uM>
0.616595002

> <pIC50>
6.21

> <Activity>
1

$$$$

  SciTegic10102310092D

 11 11  0  0  0  0            999 V2000
    3.1510   -0.7161    0.0000 C   0  0
    1.6852   -0.3846    0.0000 N   0  0
    1.3514    1.0778    0.0000 C   0  0
    0.0000    1.7286    0.0000 C   0  0
   -1.3515    1.0777    0.0000 C   0  0
   -1.6852   -0.3847    0.0000 C   0  0
   -0.7500   -1.5574    0.0000 C   0  0
    0.7500   -1.5574    0.0000 C   0  0
    1.4008   -2.9088    0.0000 O   0  0
    4.1697    0.3850    0.0000 O   0  0
    3.5956   -2.1486    0.0000 C   0  0
  1  2  1  0
  2  3  1  0
  3  4  1  0
  4  5  1  0
  5  6  1  0
  6  7  1  0
  7  8  1  0
  8  2  1  0
  8  9  2  0
  1 10  2  0
  1 11  1  0
M  END
> <Smiles>
C(N1CCCCCC1=O)(=O)C

> <IC50_uM>
0.616595002

> <pIC50>
6.21

> <Activity>
1

$$$$

  SciTegic10102310092D

  9  9  0  0  0  0            999 V2000
    1.6852   -0.3846    0.0000 S   0  0
    2.6719    0.7452    0.0000 O   0  0
    2.0841   -1.8306    0.0000 O   0  0
    1.3514    1.0778    0.0000 O   0  0
    0.0000    1.7286    0.0000 C   0  0
   -1.3515    1.0777    0.0000 C   0  0
   -1.6852   -0.3847    0.0000 C   0  0
   -0.7500   -1.5574    0.0000 C   0  0
    0.7500   -1.5574    0.0000 O   0  0
  1  2  2  0
  1  3  2  0
  1  4  1  0
  4  5  1  0
  5  6  1  0
  6  7  1  0
  7  8  1  0
  8  9  1  0
  9  1  1  0
M  END
> <Smiles>
S1(=O)(=O)OCCCCO1

> <IC50_uM>
0.616595002

> <pIC50>
6.21

> <Activity>
1

$$$$

  SciTegic10102310092D

 11 11  0  0  0  0            999 V2000
    0.7500   -1.0323    0.0000 N   0  0
    1.2135    0.3943    0.0000 C   0  0
    2.6401    0.8578    0.0000 O   0  0
    0.0000    1.2760    0.0000 C   0  0  3  0  0  0
   -0.0031    2.7742    0.0000 C   0  0
    1.2946    3.5265    0.0000 C   0  0
   -1.3033    3.5223    0.0000 O   0  0
   -1.2135    0.3943    0.0000 C   0  0
   -2.6401    0.8578    0.0000 O   0  0
   -0.7500   -1.0323    0.0000 C   0  0
   -1.6317   -2.2458    0.0000 O   0  0
  1  2  1  0
  2  3  2  0
  2  4  1  0
  4  5  1  4
  5  6  1  0
  5  7  2  0
  4  8  1  0
  8  9  2  0
  8 10  1  0
 10  1  1  0
 10 11  2  0
M  END
> <Smiles>
N1C(=O)C(C(C)=O)C(=O)C1=O

> <IC50_uM>
0.616595002

> <pIC50>
6.21

> <Activity>
1

$$$$

  SciTegic10102310092D

 11 12  0  0  0  0            999 V2000
   -1.9556    1.4291    0.0000 C   0  0  3  0  0  0
   -1.5043    0.0000    0.0000 C   0  0
   -2.3910   -1.2099    0.0000 O   0  0
    0.0000    0.0000    0.0000 O   0  0
    0.4513    1.4291    0.0000 C   0  0
   -0.7521    2.3016    0.0000 C   0  0
   -2.4219    2.8581    0.0000 C   0  0
   -3.9262    2.8581    0.0000 C   0  0
   -4.3925    1.4291    0.0000 C   0  0
   -3.1740    0.5415    0.0000 C   0  0
   -3.1740   -0.9585    0.0000 O   0  0
  1  2  1  0
  2  3  2  0
  2  4  1  0
  4  5  1  0
  5  6  1  0
  1  6  1  4
  1  7  1  0
  7  8  1  0
  8  9  1  0
  9 10  1  0
 10  1  1  0
 10 11  2  0
M  END
> <Smiles>
C12(C(=O)OCC1)CCCC2=O

> <IC50_uM>
0.616595002

> <pIC50>
6.21

> <Activity>
1

$$$$

  SciTegic10102310092D

 11 10  0  0  0  0            999 V2000
    2.6000    0.0000    0.0000 C   0  0
    1.3000    0.7500    0.0000 C   0  0
    1.3000    2.2500    0.0000 O   0  0
    0.0007    0.0004    0.0000 O   0  0
    3.9000    0.7500    0.0000 C   0  0
    5.2000    0.0000    0.0000 C   0  0
    6.5000    0.7500    0.0000 N   0  0
    7.7999    0.0000    0.0000 C   0  0
    9.0999    0.7500    0.0000 C   0  0
   10.3992    0.0004    0.0000 C   0  0
    5.2000   -1.5000    0.0000 O   0  0
  1  2  1  0
  2  3  1  0
  2  4  2  0
  1  5  2  0
  5  6  1  0
  6  7  1  0
  7  8  1  0
  8  9  1  0
  9 10  2  0
  6 11  2  0
M  END
> <Smiles>
C(/C(O)=O)=C\C(NCC=C)=O

> <IC50_uM>
0.616595002

> <pIC50>
6.21

> <Activity>
1

$$$$

  SciTegic10102310092D

 11 11  0  0  0  0            999 V2000
    1.2990   -0.7500    0.0000 C   0  0
    2.5981   -1.5000    0.0000 N   0  0
    1.2990    0.7500    0.0000 C   0  0
    0.0000    1.5000    0.0000 C   0  0
   -1.2990    0.7500    0.0000 N   0  0
   -2.5973    1.5031    0.0000 C   0  0
   -2.5951    3.0039    0.0000 C   0  0
   -3.8926    3.7566    0.0000 O   0  0
   -1.2990   -0.7500    0.0000 C   0  0
   -2.5981   -1.5000    0.0000 O   0  0
    0.0000   -1.5000    0.0000 N   0  0
  1  2  2  0
  1  3  1  0
  3  4  2  0
  4  5  1  0
  5  6  1  0
  6  7  1  0
  7  8  1  0
  5  9  1  0
  9 10  2  0
  9 11  1  0
 11  1  1  0
M  END
> <Smiles>
C1(=N)C=CN(CCO)C(=O)N1

> <IC50_uM>
0.616595002

> <pIC50>
6.21

> <Activity>
1

$$$$

  SciTegic10102310092D

 21 22  0  0  0  0            999 V2000
    1.2990   -0.7500    0.0000 C   0  0
    1.2990    0.7500    0.0000 C   0  0  3  0  0  0
    1.2626    2.2300    0.0000 C   0  0
    2.5235    3.0440    0.0000 C   0  0
    2.4499    4.5430    0.0000 N   0  0
    3.7108    5.3571    0.0000 C   0  0
    3.6372    6.8553    0.0000 C   0  0
    1.1161    5.2312    0.0000 C   0  0
    1.0442    6.7294    0.0000 C   0  0
    2.5629   -0.0216    0.0000 C   0  0
    2.5262   -1.5211    0.0000 C   0  0
    3.8064   -2.3027    0.0000 C   0  0
    5.1235   -1.5848    0.0000 C   0  0
    5.1602   -0.0852    0.0000 C   0  0
    3.8799    0.6964    0.0000 C   0  0
    0.0000    1.5000    0.0000 C   0  0
    0.0000    3.0000    0.0000 O   0  0
   -1.2990    0.7500    0.0000 N   0  0
   -1.2990   -0.7500    0.0000 C   0  0
   -2.5981   -1.5000    0.0000 O   0  0
    0.0000   -1.5000    0.0000 C   0  0
  1  2  1  0
  2  3  1  4
  3  4  1  0
  4  5  1  0
  5  6  1  0
  6  7  1  0
  5  8  1  0
  8  9  1  0
  2 10  1  0
 10 11  1  0
 11 12  1  0
 12 13  1  0
 13 14  1  0
 14 15  1  0
 15 10  1  0
  2 16  1  0
 16 17  2  0
 16 18  1  0
 18 19  1  0
 19 20  2  0
 19 21  1  0
 21  1  1  0
M  END
> <Smiles>
C1C(CCN(CC)CC)(C2CCCCC2)C(=O)NC(=O)C1

> <IC50_uM>
0.616595002

> <pIC50>
6.21

> <Activity>
1

$$$$

  SciTegic10102310092D

 11 12  0  0  0  0            999 V2000
    1.8975   -0.8028    0.0000 C   0  0
    0.9488    0.0000    0.0000 C   0  0
   -0.8393    0.0000    0.0000 C   0  0  3  0  0  0
   -1.0947    1.4779    0.0000 C   0  0  3  0  0  0
    0.0000    0.6568    0.0000 C   0  0  3  0  0  0
   -0.6568   -0.6386    0.0000 C   0  0
   -1.8063   -1.3319    0.0000 C   0  0
    1.6421    0.6933    0.0000 C   0  0  3  0  0  0
    1.1052    2.0939    0.0000 C   0  0
    3.1193    0.4328    0.0000 O   0  0
   -1.8778    2.7573    0.0000 O   0  0
  1  2  2  0
  3  2  1  4
  3  4  1  0
  4  5  1  0
  5  6  1  4
  6  7  1  0
  7  3  1  0
  5  8  1  0
  8  1  1  0
  8  9  1  4
  8 10  1  0
  4 11  1  4
M  END
> <Smiles>
C1=CC2C(C(CC2)C1(C)O)O

> <IC50_uM>
0.616595002

> <pIC50>
6.21

> <Activity>
1

$$$$

  SciTegic10102310092D

  8  8  0  0  0  0            999 V2000
    0.0000   -1.0607    0.0000 C   0  0
    1.3000   -1.8035    0.0000 C   0  0
    2.5993   -1.0540    0.0000 Cl  0  0
   -1.3001   -1.8040    0.0000 C   0  0
   -1.3012   -3.3040    0.0000 Cl  0  0
    1.0607    0.0000    0.0000 C   0  0
    0.0000    1.0607    0.0000 O   0  0
   -1.0607    0.0000    0.0000 C   0  0
  1  2  1  0
  2  3  1  0
  1  4  1  0
  4  5  1  0
  1  6  1  0
  6  7  1  0
  7  8  1  0
  8  1  1  0
M  END
> <Smiles>
C1(CCl)(CCl)COC1

> <IC50_uM>
0.616595002

> <pIC50>
6.21

> <Activity>
1

$$$$

  SciTegic10102310092D

 11 12  0  0  0  0            999 V2000
   -4.5628   -2.3141    0.0000 C   0  0  3  0  0  0
   -5.7497   -3.2312    0.0000 C   0  0
   -3.8642   -1.1134    0.0000 C   0  0
   -3.4391   -0.2082    0.0000 C   0  0
   -5.3465   -1.3426    0.0000 C   0  0
   -2.4451   -0.7641    0.0000 C   0  0  3  0  0  0
   -3.2310    0.3930    0.0000 C   0  0
   -3.2310   -1.9430    0.0000 C   0  0  3  0  0  0
   -1.2226   -1.1134    0.0000 C   0  0
   -1.8993   -2.3141    0.0000 C   0  0
   -1.3251   -3.6998    0.0000 O   0  0
  1  2  1  4
  1  3  1  0
  3  4  1  0
  3  5  1  0
  3  6  1  0
  6  7  1  4
  8  7  1  4
  8  1  1  0
  6  9  1  0
  9 10  1  0
 10  8  1  0
 10 11  2  0
M  END
> <Smiles>
C1(C)C(C)(C)C(CC12)CC2=O

> <IC50_uM>
0.616595002

> <pIC50>
6.21

> <Activity>
1

$$$$

  SciTegic10102310092D

 11 12  0  0  0  0            999 V2000
   -4.5628   -2.3141    0.0000 C   0  0  3  0  0  0
   -5.7497   -3.2312    0.0000 C   0  0
   -3.8642   -1.1134    0.0000 C   0  0
   -3.4391   -0.2082    0.0000 C   0  0
   -5.3465   -1.3426    0.0000 C   0  0
   -2.4451   -0.7641    0.0000 C   0  0  3  0  0  0
   -3.2310    0.3930    0.0000 C   0  0
   -3.2310   -1.9430    0.0000 C   0  0  3  0  0  0
   -1.2226   -1.1134    0.0000 C   0  0
   -1.8993   -2.3141    0.0000 C   0  0  3  0  0  0
   -1.3251   -3.6998    0.0000 O   0  0
  1  2  1  4
  1  3  1  0
  3  4  1  0
  3  5  1  0
  3  6  1  0
  6  7  1  4
  8  7  1  4
  8  1  1  0
  6  9  1  0
  9 10  1  0
 10  8  1  0
 10 11  1  4
M  END
> <Smiles>
C1(C)C(C)(C)C(CC12)CC2O

> <IC50_uM>
0.616595002

> <pIC50>
6.21

> <Activity>
1

$$$$

  SciTegic10102310092D

 23 24  0  0  0  0            999 V2000
    3.9075   -3.7444    0.0000 C   0  0
    2.6060   -2.9986    0.0000 O   0  0
    2.6003   -1.4977    0.0000 C   0  0  3  0  0  0
    1.2990   -0.7500    0.0000 C   0  0
    1.2990    0.7500    0.0000 N   0  0
    0.0000    1.5000    0.0000 C   0  0
   -0.0031    3.0008    0.0000 N   0  0
   -1.3039    3.7494    0.0000 C   0  0
   -1.3070    5.2494    0.0000 C   0  0
   -2.6017    2.9971    0.0000 C   0  0
   -1.2990    0.7500    0.0000 N   0  0
   -1.2990   -0.7500    0.0000 C   0  0
   -2.5981   -1.5000    0.0000 O   0  0
    0.0000   -1.5000    0.0000 C   0  0
    0.0000   -3.0000    0.0000 C   0  0
    3.8990   -0.7455    0.0000 C   0  0
    5.2007   -1.4909    0.0000 C   0  0
    5.2060   -2.9909    0.0000 F   0  0
    6.4972   -0.7364    0.0000 C   0  0
    6.4920    0.7636    0.0000 C   0  0
    5.1903    1.5091    0.0000 C   0  0
    3.8939    0.7546    0.0000 C   0  0
    2.5923    1.5001    0.0000 F   0  0
  1  2  1  0
  3  2  1  4
  3  4  1  0
  4  5  1  0
  5  6  2  0
  6  7  1  0
  7  8  1  0
  8  9  1  0
  8 10  1  0
  6 11  1  0
 11 12  1  0
 12 13  2  0
 12 14  1  0
 14  4  2  0
 14 15  1  0
  3 16  1  0
 16 17  2  0
 17 18  1  0
 17 19  1  0
 19 20  2  0
 20 21  1  0
 21 22  2  0
 22 16  1  0
 22 23  1  0
M  END
> <Smiles>
COC(c1nc(NC(C)C)[nH]c(=O)c1C)c1c(F)cccc1F

> <IC50_uM>
0.62

> <pIC50>
6.207608311

> <Activity>
1

$$$$

  SciTegic10102310092D

 25 27  0  0  0  0            999 V2000
    2.5983   -3.0004    0.0000 C   0  0
    2.5988   -1.5004    0.0000 C   0  0  3  0  0  0
    1.2996   -2.2502    0.0000 O   0  0
    1.2990   -0.7500    0.0000 C   0  0
    1.2990    0.7500    0.0000 C   0  0
    0.0000    1.5000    0.0000 C   0  0
   -1.2990    0.7500    0.0000 C   0  0
   -1.2990   -0.7500    0.0000 C   0  0
   -2.5981   -1.5000    0.0000 F   0  0
    0.0000   -1.5000    0.0000 C   0  0
    3.8990   -0.7508    0.0000 C   0  0
    5.1976   -1.5016    0.0000 C   0  0
    6.4971   -0.7525    0.0000 C   0  0
    6.4980    0.7475    0.0000 N   0  0
    5.1995    1.4984    0.0000 C   0  0
    5.1973    2.9992    0.0000 N   0  0
    3.8970    3.7486    0.0000 C   0  0
    3.8927    5.2486    0.0000 C   0  0
    2.5915    5.9949    0.0000 C   0  0
    1.2946    5.2413    0.0000 C   0  0
   -0.0073    5.9880    0.0000 C   0  0
   -1.3084    6.7343    0.0000 N   0  0
    1.2988    3.7413    0.0000 C   0  0
    2.6000    2.9949    0.0000 C   0  0
    3.9000    0.7492    0.0000 N   0  0
  2  1  1  4
  2  3  1  0
  2  4  1  0
  4  5  2  0
  5  6  1  0
  6  7  2  0
  7  8  1  0
  8  9  1  0
  8 10  2  0
 10  4  1  0
  2 11  1  0
 11 12  2  0
 12 13  1  0
 13 14  2  0
 14 15  1  0
 15 16  1  0
 16 17  1  0
 17 18  2  0
 18 19  1  0
 19 20  2  0
 20 21  1  0
 21 22  3  0
 20 23  1  0
 23 24  2  0
 24 17  1  0
 15 25  2  0
 25 11  1  0
M  END
> <Smiles>
CC(O)(c1cccc(F)c1)c1ccnc(Nc2ccc(C#N)cc2)n1

> <IC50_uM>
0.63

> <pIC50>
6.200659451

> <Activity>
1

$$$$

  SciTegic10102310092D

 23 25  0  0  0  0            999 V2000
    1.2636   -2.2496    0.0000 C   0  0
    1.2990   -0.7500    0.0000 C   0  0
    2.5801    0.0303    0.0000 C   0  0
    1.2990    0.7500    0.0000 O   0  0
    0.0000    1.5000    0.0000 C   0  0
    0.0000    3.0000    0.0000 O   0  0
   -1.2990    0.7500    0.0000 N   0  0
   -1.2990   -0.7500    0.0000 C   0  0
   -2.5981   -1.5000    0.0000 C   0  0
   -2.5981   -3.0000    0.0000 C   0  0
   -1.2990   -3.7500    0.0000 C   0  0
    0.0000   -3.0000    0.0000 C   0  0
    1.2982   -3.7531    0.0000 O   0  0
    1.2961   -5.2539    0.0000 C   0  0
    2.5925   -6.0085    0.0000 C   0  0
    2.5873   -7.5085    0.0000 C   0  0
    3.8838   -8.2630    0.0000 Cl  0  0
    1.2857   -8.2540    0.0000 C   0  0
   -0.0107   -7.4995    0.0000 C   0  0
   -1.3131   -8.2454    0.0000 C   0  0
   -2.6147   -8.9909    0.0000 N   0  0
   -0.0055   -5.9995    0.0000 C   0  0
    0.0000   -1.5000    0.0000 C   0  0
  1  2  1  0
  2  3  1  0
  2  4  1  0
  4  5  1  0
  5  6  2  0
  5  7  1  0
  7  8  1  0
  8  9  2  0
  9 10  1  0
 10 11  2  0
 11 12  1  0
 12 13  1  0
 13 14  1  0
 14 15  2  0
 15 16  1  0
 16 17  1  0
 16 18  2  0
 18 19  1  0
 19 20  1  0
 20 21  3  0
 19 22  2  0
 22 14  1  0
 12 23  2  0
 23  8  1  0
 23  2  1  0
M  END
> <Smiles>
CC1(C)OC(=O)Nc2cccc(Oc3cc(Cl)cc(C#N)c3)c21

> <IC50_uM>
0.63

> <pIC50>
6.200659451

> <Activity>
1

$$$$

  SciTegic10102310092D

 26 28  0  0  0  0            999 V2000
    2.5951   -3.0031    0.0000 C   0  0
    2.5973   -1.5031    0.0000 S   0  0
    1.2990   -0.7500    0.0000 C   0  0
    1.2990    0.7500    0.0000 C   0  0
    0.0000    1.5000    0.0000 C   0  0
   -1.2990    0.7500    0.0000 C   0  0
   -2.7248    1.2135    0.0000 C   0  0
   -3.1882    2.6401    0.0000 C   0  0
   -3.6065    0.0000    0.0000 N   0  0
   -2.7248   -1.2135    0.0000 C   0  0
   -3.1904   -2.6376    0.0000 C   0  0
   -4.6588   -2.9478    0.0000 C   0  0
   -5.1253   -4.3743    0.0000 C   0  0
   -6.5937   -4.6845    0.0000 C   0  0
   -7.0602   -6.1110    0.0000 C   0  0
   -8.5286   -6.4213    0.0000 C   0  0
   -8.9950   -7.8478    0.0000 C   0  0
   -7.9930   -8.9640    0.0000 O   0  0
  -10.4634   -8.1580    0.0000 C   0  0
  -10.9317   -9.5831    0.0000 C   0  0
  -12.3999   -9.8901    0.0000 C   0  0
  -13.4000   -8.7721    0.0000 C   0  0
  -12.9318   -7.3471    0.0000 C   0  0
  -11.4636   -7.0400    0.0000 C   0  0
   -1.2990   -0.7500    0.0000 N   0  0
    0.0000   -1.5000    0.0000 N   0  0
  1  2  1  0
  2  3  1  0
  3  4  1  0
  4  5  2  0
  5  6  1  0
  6  7  2  0
  7  8  1  0
  7  9  1  0
  9 10  2  0
 10 11  1  0
 11 12  1  0
 12 13  1  0
 13 14  1  0
 14 15  1  0
 15 16  1  0
 16 17  1  0
 17 18  2  0
 17 19  1  0
 19 20  2  0
 20 21  1  0
 21 22  2  0
 22 23  1  0
 23 24  2  0
 24 19  1  0
 10 25  1  0
 25  6  1  0
 25 26  1  0
 26  3  2  0
M  END
> <Smiles>
CSc1ccc2c(C)nc(CCCCCCC(=O)c3ccccc3)n2n1.Cl

> <IC50_uM>
0.63

> <pIC50>
6.200659451

> <Activity>
1

> <RemovedSalts>
HCl

$$$$

  SciTegic10102310092D

 11 12  0  0  0  0            999 V2000
    0.4080   -1.7063    0.0000 C   0  0
   -0.6568   -0.6386    0.0000 N   0  0
   -1.8063   -1.3319    0.0000 C   0  0
   -0.8393    0.0000    0.0000 C   0  0  3  0  0  0
    0.9488    0.0000    0.0000 C   0  0
    1.8975   -0.8028    0.0000 C   0  0
    1.6421    0.6933    0.0000 C   0  0
   -1.0947    1.4779    0.0000 O   0  0
    0.0000    0.6568    0.0000 C   0  0  3  0  0  0
    0.0178   -3.1555    0.0000 C   0  0
    1.0765   -4.2181    0.0000 O   0  0
  1  2  1  0
  2  3  1  0
  4  3  1  4
  4  5  1  0
  5  6  1  0
  6  7  1  0
  4  8  1  0
  9  8  1  4
  9  2  1  0
  9  7  1  0
  1 10  1  0
 10 11  1  0
M  END
> <Smiles>
C(N1CC(CCC2)OC12)CO

> <IC50_uM>
0.630957344

> <pIC50>
6.2

> <Activity>
1

$$$$

  SciTegic10102310092D

 10 11  0  0  0  0            999 V2000
    1.6317   -2.2458    0.0000 N   0  0
    0.7500   -1.0323    0.0000 N   0  0
    1.2135    0.3943    0.0000 C   0  0
    0.0000    1.2760    0.0000 N   0  0
   -1.2135    0.3943    0.0000 N   0  0
   -2.7115    0.3949    0.0000 C   0  0
   -3.1750   -1.0317    0.0000 N   0  0
   -1.9615   -1.9133    0.0000 N   0  0
   -0.7500   -1.0323    0.0000 C   0  0
    2.6401    0.8578    0.0000 S   0  0
  1  2  1  0
  2  3  1  0
  3  4  1  0
  4  5  1  0
  5  6  1  0
  6  7  2  0
  7  8  1  0
  5  9  1  0
  9  2  1  0
  9  8  2  0
  3 10  2  0
M  END
> <Smiles>
NN1C(Nn(cnn2)c12)=S

> <IC50_uM>
0.630957344

> <pIC50>
6.2

> <Activity>
1

$$$$

  SciTegic10102310092D

 10 11  0  0  0  0            999 V2000
   -0.7014   -3.1803    0.0000 O   0  0
    0.7488   -2.7970    0.0000 S   0  0
    2.0479   -2.0470    0.0000 C   0  0
    1.2990   -0.7500    0.0000 C   0  0
    1.2990    0.7500    0.0000 C   0  0
    0.0000    1.5000    0.0000 C   0  0
   -1.2990    0.7500    0.0000 C   0  0
   -1.2990   -0.7500    0.0000 C   0  0
    0.0000   -1.5000    0.0000 C   0  0  3  0  0  0
    1.8129   -3.8542    0.0000 O   0  0
  1  2  2  0
  2  3  1  0
  3  4  2  0
  4  5  1  0
  5  6  1  0
  6  7  1  0
  7  8  1  0
  4  9  1  0
  9  2  1  0
  9  8  1  4
  2 10  2  0
M  END
> <Smiles>
O=S1(C=C(CCCC2)C12)=O

> <IC50_uM>
0.630957344

> <pIC50>
6.2

> <Activity>
1

$$$$

  SciTegic10102310092D

 11 13  0  0  0  0            999 V2000
    2.5478   -0.2286    0.0000 O   0  0
    1.3800   -1.1700    0.0000 C   0  0  3  0  0  0
   -0.2000   -0.8900    0.0000 C   0  0  3  0  0  0
   -1.5000   -1.8500    0.0000 O   0  0
   -0.8900   -2.7900    0.0000 C   0  0  3  0  0  0
    0.3100   -1.7700    0.0000 C   0  0  3  0  0  0
    2.2000   -1.9900    0.0000 C   0  0
    3.2957   -0.9656    0.0000 O   0  0
    2.2700   -3.4300    0.0000 O   0  0
    0.3100    0.1600    0.0000 C   0  0
    1.3300   -2.4700    0.0000 C   0  0  3  0  0  0
  2  1  1  4
  2  3  1  0
  3  4  1  4
  5  4  1  4
  5  6  1  0
  6  7  1  0
  7  8  2  0
  7  9  1  0
  6 10  1  4
 10  3  1  0
  5 11  1  0
 11  2  1  0
 11  9  1  4
M  END
> <Smiles>
OC1C2OC(C(C(=O)O3)C2)C13

> <IC50_uM>
0.630957344

> <pIC50>
6.2

> <Activity>
1

$$$$

  SciTegic10102310092D

 12 13  0  0  0  0            999 V2000
   -0.6913   -4.0797    0.0000 C   0  0
    0.3114   -2.9665    0.0000 C   0  0  3  0  0  0
    1.8032   -3.1233    0.0000 C   0  0
    2.4133   -1.7530    0.0000 N   0  0
    1.2990   -0.7500    0.0000 C   0  0
    1.2990    0.7500    0.0000 C   0  0
    0.0000    1.5000    0.0000 C   0  0
   -1.2990    0.7500    0.0000 C   0  0
   -1.2990   -0.7500    0.0000 N   0  0
    0.0000   -1.5000    0.0000 C   0  0
    2.5532   -4.4223    0.0000 O   0  0
   -1.6952   -5.1942    0.0000 N   0  0
  2  1  1  4
  2  3  1  0
  3  4  1  0
  4  5  1  0
  5  6  2  0
  6  7  1  0
  7  8  2  0
  8  9  1  0
  5 10  1  0
 10  2  1  0
 10  9  2  0
  3 11  2  0
  1 12  3  0
M  END
> <Smiles>
C(C1C(Nc(cccn2)c12)=O)#N

> <IC50_uM>
0.630957344

> <pIC50>
6.2

> <Activity>
1

$$$$

  SciTegic10102310092D

 10 11  0  0  0  0            999 V2000
    1.6317   -2.2458    0.0000 O   0  0
    0.7500   -1.0323    0.0000 C   0  0
    1.2135    0.3943    0.0000 O   0  0
    0.0000    1.2760    0.0000 C   0  0
    0.0000    2.7760    0.0000 O   0  0
   -1.2135    0.3943    0.0000 N   0  0
   -2.7115    0.3949    0.0000 C   0  0
   -3.1750   -1.0317    0.0000 S   0  0
   -1.9615   -1.9133    0.0000 C   0  0
   -0.7500   -1.0323    0.0000 C   0  0  3  0  0  0
  1  2  2  0
  2  3  1  0
  3  4  1  0
  4  5  2  0
  4  6  1  0
  6  7  1  0
  7  8  1  0
  8  9  1  0
  6 10  1  0
 10  2  1  0
 10  9  1  4
M  END
> <Smiles>
O=C1OC(=O)N(CSC2)C12

> <IC50_uM>
0.630957344

> <pIC50>
6.2

> <Activity>
1

$$$$

  SciTegic10102310092D

 10  9  0  0  0  0            999 V2000
    2.6000    0.0000    0.0000 N   0  0
    1.3000    0.7500    0.0000 C   0  0
    0.0007    0.0004    0.0000 C   0  0
    2.6031   -1.5008    0.0000 C   0  0
    3.9032   -2.2490    0.0000 C   0  0
    3.9000    0.7500    0.0000 C   0  0
    5.2000    0.0000    0.0000 C   0  0
    5.2000   -1.5000    0.0000 C   0  0
    6.5000    0.7500    0.0000 C   0  0
    7.7992    1.4996    0.0000 C   0  0
  1  2  1  0
  2  3  1  0
  1  4  1  0
  4  5  1  0
  1  6  1  0
  6  7  1  0
  7  8  1  0
  7  9  2  0
  9 10  2  0
M  END
> <Smiles>
N(CC)(CC)CC(C)=C=C

> <IC50_uM>
0.630957344

> <pIC50>
6.2

> <Activity>
1

$$$$

  SciTegic10102310092D

 11 11  0  0  0  0            999 V2000
    2.5973   -1.5031    0.0000 C   0  0
    1.2990   -0.7500    0.0000 N   0  0
    1.2990    0.7500    0.0000 C   0  0
    0.0000    1.5000    0.0000 C   0  0  3  0  0  0
   -1.2990    0.7500    0.0000 O   0  0
   -1.2990   -0.7500    0.0000 C   0  0  3  0  0  0
   -2.5981   -1.5000    0.0000 C   0  0
    0.0000   -1.5000    0.0000 C   0  0
    0.0000    3.0000    0.0000 C   0  0
    2.5951   -3.0039    0.0000 C   0  0
    3.8926   -3.7566    0.0000 O   0  0
  1  2  1  0
  2  3  1  0
  3  4  1  0
  4  5  1  0
  5  6  1  0
  6  7  1  4
  6  8  1  0
  8  2  1  0
  4  9  1  4
  1 10  1  0
 10 11  1  0
M  END
> <Smiles>
C(N1CC(OC(C)C1)C)CO

> <IC50_uM>
0.630957344

> <pIC50>
6.2

> <Activity>
1

$$$$

  SciTegic10102310092D

 12 13  0  0  0  0            999 V2000
    1.2990   -0.7500    0.0000 C   0  0
    1.2990    0.7500    0.0000 C   0  0
    0.0000    1.5000    0.0000 C   0  0
    0.0000    3.0008    0.0000 C   0  0
    1.2978    3.7529    0.0000 N   0  0
    1.2954    5.2529    0.0000 C   0  0
   -0.0048    6.0009    0.0000 C   0  0
   -1.3026    5.2488    0.0000 C   0  0
   -1.3002    3.7488    0.0000 C   0  0
   -1.2990    0.7500    0.0000 N   0  0
   -1.2990   -0.7500    0.0000 C   0  0
    0.0000   -1.5000    0.0000 C   0  0
  1  2  2  0
  2  3  1  0
  3  4  1  0
  4  5  2  0
  5  6  1  0
  6  7  2  0
  7  8  1  0
  4  9  1  0
  9  8  2  0
  3 10  2  0
 10 11  1  0
 11 12  2  0
 12  1  1  0
M  END
> <Smiles>
c1cc(c(nccc2)c2)ncc1

> <IC50_uM>
0.630957344

> <pIC50>
6.2

> <Activity>
1

$$$$

  SciTegic10102310092D

  8  7  0  0  0  0            999 V2000
    2.6000    0.0000    0.0000 C   0  0
    1.3000    0.7500    0.0000 C   0  0
    1.3000    2.2500    0.0000 O   0  0
    0.0007    0.0004    0.0000 O   0  0
    3.9000   -0.7500    0.0000 C   0  0
    5.2000   -1.5000    0.0000 C   0  0
    5.2000   -3.0000    0.0000 O   0  0
    6.4992   -0.7504    0.0000 O   0  0
  1  2  1  0
  2  3  1  0
  2  4  2  0
  1  5  3  0
  5  6  1  0
  6  7  1  0
  6  8  2  0
M  END
> <Smiles>
C(C(O)=O)#CC(O)=O

> <IC50_uM>
0.630957344

> <pIC50>
6.2

> <Activity>
1

$$$$

  SciTegic10102310092D

 10 10  0  0  0  0            999 V2000
    1.2990   -0.7500    0.0000 N   0  0
    2.5973   -1.5031    0.0000 C   0  0
    2.5951   -3.0031    0.0000 O   0  0
    1.2990    0.7500    0.0000 C   0  0
    0.0000    1.5000    0.0000 C   0  0
   -1.2990    0.7500    0.0000 N   0  0
   -2.6003    1.4977    0.0000 C   0  0
   -3.8983    0.7459    0.0000 S   0  0
   -1.2990   -0.7500    0.0000 C   0  0
    0.0000   -1.5000    0.0000 C   0  0
  1  2  1  0
  2  3  2  0
  1  4  1  0
  4  5  1  0
  5  6  1  0
  6  7  1  0
  7  8  2  0
  6  9  1  0
  9 10  1  0
 10  1  1  0
M  END
> <Smiles>
N1(C=O)CCN(C=S)CC1

> <IC50_uM>
0.630957344

> <pIC50>
6.2

> <Activity>
1

$$$$

  SciTegic10102310092D

 10 10  0  0  0  0            999 V2000
    1.2990   -0.7500    0.0000 N   0  0
    1.2990    0.7500    0.0000 N   0  0
    0.0000    1.5000    0.0000 C   0  0
    0.0000    3.0000    0.0000 S   0  0
   -1.2990    0.7500    0.0000 N   0  0
   -1.2990   -0.7500    0.0000 C   0  0
   -2.5981   -1.5000    0.0000 O   0  0
    0.0000   -1.5000    0.0000 C   0  0
   -1.3164   -2.2191    0.0000 C   0  0
    1.3163   -2.2193    0.0000 C   0  0
  1  2  1  0
  2  3  1  0
  3  4  2  0
  3  5  1  0
  5  6  1  0
  6  7  2  0
  6  8  1  0
  8  1  1  0
  8  9  1  0
  8 10  1  0
M  END
> <Smiles>
N1NC(=S)NC(=O)C1(C)C

> <IC50_uM>
0.630957344

> <pIC50>
6.2

> <Activity>
1

$$$$

  SciTegic10102310092D

 11 10  0  0  0  0            999 V2000
    0.0007    0.0004    0.0000 C   0  0
    1.3000    0.7500    0.0000 O   0  0
    2.6000    0.0000    0.0000 C   0  0
    3.9000    0.7500    0.0000 C   0  0
    5.2000    0.0000    0.0000 C   0  0
    6.5000    0.7500    0.0000 C   0  0
    7.7999    0.0000    0.0000 C   0  0
    9.0999    0.7500    0.0000 C   0  0
   10.3992    0.0004    0.0000 C   0  0
    5.2000   -1.5000    0.0000 O   0  0
    2.6000   -1.5000    0.0000 O   0  0
  1  2  1  0
  2  3  1  0
  3  4  1  0
  4  5  1  0
  5  6  1  0
  6  7  1  0
  7  8  1  0
  8  9  2  0
  5 10  2  0
  3 11  2  0
M  END
> <Smiles>
COC(CC(CCC=C)=O)=O

> <IC50_uM>
0.630957344

> <pIC50>
6.2

> <Activity>
1

$$$$

  SciTegic10102310092D

 11 11  0  0  0  0            999 V2000
    0.7500   -1.0323    0.0000 C   0  0
    1.2135    0.3943    0.0000 C   0  0
    0.0000    1.2760    0.0000 C   0  0
    0.0031    2.7742    0.0000 N   0  0
    1.3032    3.5224    0.0000 O   0  0
   -1.2135    0.3943    0.0000 C   0  0  3  0  0  0
   -2.6394    0.8543    0.0000 C   0  0
   -3.7533   -0.1515    0.0000 N   0  0
   -5.1808    0.3090    0.0000 C   0  0
   -3.4388   -1.6182    0.0000 C   0  0
   -0.7500   -1.0323    0.0000 C   0  0
  1  2  1  0
  2  3  1  0
  3  4  2  0
  4  5  1  0
  3  6  1  0
  6  7  1  4
  7  8  1  0
  8  9  1  0
  8 10  1  0
  6 11  1  0
 11  1  1  0
M  END
> <Smiles>
C1C\C(=N/O)\C(CN(C)C)C1

> <IC50_uM>
0.630957344

> <pIC50>
6.2

> <Activity>
1

$$$$

  SciTegic10102310092D

 11 10  0  0  0  0            999 V2000
    6.5000    2.2500    0.0000 C   0  0
    6.5000    0.7500    0.0000 C   0  0
    5.2000    0.0000    0.0000 C   0  0
    3.9000    0.7500    0.0000 N   0  0
    2.6000    0.0000    0.0000 C   0  0
    1.3000    0.7500    0.0000 C   0  0
    0.0007    0.0004    0.0000 C   0  0
    5.1969   -1.5008    0.0000 N   0  0
    3.8968   -2.2490    0.0000 C   0  0
    6.4946   -2.2531    0.0000 C   0  0
    7.7992    0.0004    0.0000 O   0  0
  1  2  1  0
  2  3  1  0
  3  4  2  0
  4  5  1  0
  5  6  1  0
  6  7  1  0
  3  8  1  0
  8  9  1  0
  8 10  1  0
  2 11  2  0
M  END
> <Smiles>
CC(\C(=N\CCC)\N(C)C)=O

> <IC50_uM>
0.630957344

> <pIC50>
6.2

> <Activity>
1

$$$$

  SciTegic10102310092D

 23 25  0  0  0  0            999 V2000
    1.2883   -5.2495    0.0000 C   0  0  3  0  0  0
   -0.0156   -5.9927    0.0000 C   0  0
   -1.3109   -5.2364    0.0000 O   0  0
    2.5847   -6.0040    0.0000 C   0  0  3  0  0  0
    2.5796   -7.5040    0.0000 O   0  0
    3.8864   -5.2585    0.0000 C   0  0  3  0  0  0
    5.1828   -6.0130    0.0000 O   0  0
    3.8915   -3.7585    0.0000 C   0  0  3  0  0  0
    5.1932   -3.0130    0.0000 O   0  0
    2.5951   -3.0039    0.0000 C   0  0  3  0  0  0
    2.5973   -1.5031    0.0000 O   0  0
    1.2990   -0.7500    0.0000 C   0  0  3  0  0  0
    1.2990    0.7500    0.0000 C   0  0  3  0  0  0
    2.4133    1.7530    0.0000 C   0  0  3  0  0  0
    3.8805    1.4410    0.0000 O   0  0
    1.8032    3.1233    0.0000 C   0  0  3  0  0  0
    0.3114    2.9665    0.0000 C   0  0
    2.5532    4.4223    0.0000 O   0  0
    0.0000    1.5000    0.0000 N   0  0  3  0  0  0
   -1.2990    0.7500    0.0000 C   0  0
   -1.2990   -0.7500    0.0000 C   0  0
    0.0000   -1.5000    0.0000 C   0  0
    1.2935   -3.7495    0.0000 O   0  0
  1  2  1  4
  2  3  1  0
  1  4  1  0
  4  5  1  4
  4  6  1  0
  6  7  1  4
  6  8  1  0
  8  9  1  4
  8 10  1  0
 10 11  1  4
 12 11  1  4
 13 12  1  4
 13 14  1  0
 14 15  1  4
 14 16  1  0
 16 17  1  0
 16 18  1  4
 13 19  1  0
 19 17  1  4
 19 20  1  0
 20 21  1  0
 21 22  1  0
 22 12  1  0
 10 23  1  0
 23  1  1  0
M  END
> <Smiles>
C1(CO)C(O)C(O)C(O)C(OC2C(C(O)C(C3)O)N3CCC2)O1

> <IC50_uM>
0.630957344

> <pIC50>
6.2

> <Activity>
1

$$$$

  SciTegic10102310092D

 11 11  0  0  0  0            999 V2000
    0.7500   -1.0323    0.0000 N   0  3
    2.2393   -0.8531    0.0000 C   0  0
    0.1196   -2.3934    0.0000 C   0  0
    1.2135    0.3943    0.0000 C   0  0  3  0  0  0
    2.6375    0.8603    0.0000 C   0  0
    3.7540   -0.1415    0.0000 O   0  5
    2.9472    2.3279    0.0000 O   0  0
    0.0000    1.2760    0.0000 C   0  0
   -1.2135    0.3943    0.0000 C   0  0  3  0  0  0
   -2.6401    0.8578    0.0000 O   0  0
   -0.7500   -1.0323    0.0000 C   0  0
  1  2  1  0
  1  3  1  0
  1  4  1  0
  4  5  1  4
  5  6  1  0
  5  7  2  0
  4  8  1  0
  8  9  1  0
  9 10  1  4
  9 11  1  0
 11  1  1  0
M  CHG  2   1   1   6  -1
M  END
> <Smiles>
[N+]1(C)(C)C(C([O-])=O)CC(O)C1

> <IC50_uM>
0.630957344

> <pIC50>
6.2

> <Activity>
1

$$$$

  SciTegic10102310092D

 25 27  0  0  0  0            999 V2000
    3.8983   -0.7566    0.0000 C   0  0
    2.5973   -1.5031    0.0000 C   0  0
    1.2990   -0.7500    0.0000 C   0  0
    1.2990    0.7500    0.0000 C   0  0
    2.5981    1.5000    0.0000 C   0  0
    0.0000    1.5000    0.0000 N   0  0
   -1.2990    0.7500    0.0000 C   0  0
   -2.5981    1.5000    0.0000 O   0  0
   -1.2990   -0.7500    0.0000 C   0  0
   -2.5987   -1.5004    0.0000 N   0  0
   -3.8991   -0.7525    0.0000 C   0  0
   -5.1969   -1.5046    0.0000 C   0  0
   -5.1945   -3.0046    0.0000 C   0  0
   -3.8943   -3.7525    0.0000 C   0  0
   -2.5964   -3.0004    0.0000 C   0  0
    0.0000   -1.5000    0.0000 C   0  0
    0.0031   -3.0008    0.0000 C   0  0
    1.3039   -3.7494    0.0000 C   0  0
    1.3092   -5.2494    0.0000 C   0  0
    2.6108   -5.9949    0.0000 C   0  0
    2.6160   -7.4949    0.0000 C   0  0
    3.9073   -5.2404    0.0000 C   0  0
    3.9021   -3.7404    0.0000 C   0  0
    5.1985   -2.9859    0.0000 C   0  0
    2.6004   -2.9949    0.0000 C   0  0
  1  2  1  0
  2  3  1  0
  3  4  2  0
  4  5  1  0
  4  6  1  0
  6  7  1  0
  7  8  2  0
  7  9  1  0
  9 10  1  0
 10 11  1  0
 11 12  1  0
 12 13  1  0
 13 14  1  0
 14 15  1  0
 15 10  1  0
  9 16  2  0
 16  3  1  0
 16 17  1  0
 17 18  1  0
 18 19  2  0
 19 20  1  0
 20 21  1  0
 20 22  2  0
 22 23  1  0
 23 24  1  0
 23 25  2  0
 25 18  1  0
M  END
> <Smiles>
CCc1c(C)[nH]c(=O)c(N2CCCCC2)c1Cc1cc(C)cc(C)c1

> <IC50_uM>
0.631

> <pIC50>
6.199970641

> <Activity>
1

$$$$

  SciTegic10102310092D

 12 13  0  0  0  0            999 V2000
    2.5981   -1.5000    0.0000 O   0  0
    1.2990   -0.7500    0.0000 C   0  0
    1.2990    0.7500    0.0000 C   0  0
    0.0000    1.5000    0.0000 C   0  0
   -1.2990    0.7500    0.0000 O   0  0
   -1.2990   -0.7500    0.0000 C   0  0
   -2.5981   -1.5000    0.0000 C   0  0
   -2.5981   -3.0000    0.0000 C   0  0
   -1.2990   -3.7500    0.0000 C   0  0
    0.0000   -3.0000    0.0000 C   0  0
    0.0000   -1.5000    0.0000 C   0  0
    0.0000    3.0000    0.0000 O   0  0
  1  2  1  0
  2  3  2  0
  3  4  1  0
  4  5  1  0
  5  6  1  0
  6  7  2  0
  7  8  1  0
  8  9  2  0
  9 10  1  0
  6 11  1  0
 11  2  1  0
 11 10  2  0
  4 12  2  0
M  END
> <Smiles>
OC1=CC(Oc(cccc2)c12)=O

> <IC50_uM>
0.645654229

> <pIC50>
6.19

> <Activity>
1

$$$$

  SciTegic10102310092D

 12 13  0  0  0  0            999 V2000
    2.5981   -1.5000    0.0000 O   0  0
    1.2990   -0.7500    0.0000 C   0  0
    1.2990    0.7500    0.0000 C   0  0
    0.0000    1.5000    0.0000 C   0  0
   -1.2990    0.7500    0.0000 C   0  0
   -2.5981    1.5000    0.0000 C   0  0
   -3.8971    0.7500    0.0000 C   0  0
   -3.8971   -0.7500    0.0000 C   0  0
   -5.1961   -1.5000    0.0000 O   0  0
   -2.5981   -1.5000    0.0000 O   0  0
   -1.2990   -0.7500    0.0000 C   0  0
    0.0000   -1.5000    0.0000 C   0  0
  1  2  1  0
  2  3  2  0
  3  4  1  0
  4  5  2  0
  5  6  1  0
  6  7  2  0
  7  8  1  0
  8  9  2  0
  8 10  1  0
  5 11  1  0
 11 10  1  0
 11 12  2  0
 12  2  1  0
M  END
> <Smiles>
Oc1ccc(C=CC(=O)O2)c2c1

> <IC50_uM>
0.645654229

> <pIC50>
6.19

> <Activity>
1

$$$$

  SciTegic10102310092D

  8  8  0  0  0  0            999 V2000
    2.2393   -0.8531    0.0000 C   0  0
    0.7500   -1.0323    0.0000 C   0  0
    1.2135    0.3943    0.0000 C   0  0
    0.0000    1.2760    0.0000 O   0  0
   -1.2135    0.3943    0.0000 C   0  0
   -2.6401    0.8578    0.0000 O   0  0
   -0.7500   -1.0323    0.0000 N   0  0
    0.1196   -2.3934    0.0000 C   0  0
  1  2  1  0
  2  3  1  0
  3  4  1  0
  4  5  1  0
  5  6  2  0
  5  7  1  0
  7  2  1  0
  2  8  1  0
M  END
> <Smiles>
CC1(COC(=O)N1)C

> <IC50_uM>
0.645654229

> <pIC50>
6.19

> <Activity>
1

$$$$

  SciTegic10102310092D

 12 13  0  0  0  0            999 V2000
    2.5981   -1.5000    0.0000 C   0  0
    1.2990   -0.7500    0.0000 C   0  0
    1.2990    0.7500    0.0000 C   0  0
    0.0000    1.5000    0.0000 C   0  0
   -1.2990    0.7500    0.0000 C   0  0
   -1.2990   -0.7500    0.0000 C   0  0
   -2.4133   -1.7530    0.0000 N   0  0
   -1.8032   -3.1233    0.0000 N   0  0
   -0.3114   -2.9665    0.0000 C   0  0
    0.6924   -4.0811    0.0000 C   0  0
    0.0000   -1.5000    0.0000 N   0  0
    0.0000    3.0000    0.0000 C   0  0
  1  2  1  0
  2  3  2  0
  3  4  1  0
  4  5  2  0
  5  6  1  0
  6  7  2  0
  7  8  1  0
  8  9  2  0
  9 10  1  0
  6 11  1  0
 11  2  1  0
 11  9  1  0
  4 12  1  0
M  END
> <Smiles>
Cc1cc(cc(nnc2C)n12)C

> <IC50_uM>
0.645654229

> <pIC50>
6.19

> <Activity>
1

$$$$

  SciTegic10102310092D

 12 13  0  0  0  0            999 V2000
    1.6307   -2.2444    0.0000 C   0  0
    0.7500   -1.0323    0.0000 C   0  0
    1.2135    0.3943    0.0000 C   0  0
    0.0000    1.2760    0.0000 C   0  0
    0.0000    2.7760    0.0000 C   0  0
   -1.2135    0.3943    0.0000 N   0  0
   -2.7115    0.3949    0.0000 C   0  0
   -3.1750   -1.0317    0.0000 C   0  0
   -1.9615   -1.9133    0.0000 N   0  0
   -0.7500   -1.0323    0.0000 C   0  0
    2.6401    0.8578    0.0000 C   0  0
    2.5123   -3.4579    0.0000 N   0  0
  1  2  1  0
  2  3  1  0
  3  4  2  0
  4  5  1  0
  4  6  1  0
  6  7  1  0
  7  8  1  0
  8  9  1  0
  6 10  1  0
 10  2  2  0
 10  9  1  0
  3 11  1  0
  1 12  3  0
M  END
> <Smiles>
C(c1c(c(C)n(CCN2)c12)C)#N

> <IC50_uM>
0.645654229

> <pIC50>
6.19

> <Activity>
1

$$$$

  SciTegic10102310092D

 10 11  0  0  0  0            999 V2000
    1.6317   -2.2458    0.0000 O   0  0
    0.7500   -1.0323    0.0000 S   0  0  3  0  0  0
    1.2135    0.3943    0.0000 C   0  0
    0.0000    1.2760    0.0000 C   0  0  3  0  0  0
   -0.4623    2.7009    0.0000 O   0  0
   -1.9623    2.7008    0.0000 C   0  0
   -2.8440    3.9144    0.0000 O   0  0
   -2.4258    1.2743    0.0000 O   0  0
   -1.2135    0.3943    0.0000 C   0  0  3  0  0  0
   -0.7500   -1.0323    0.0000 C   0  0
  1  2  2  0
  2  3  1  4
  4  3  1  4
  4  5  1  0
  5  6  1  0
  6  7  2  0
  6  8  1  0
  4  9  1  0
  9  8  1  4
  9 10  1  0
 10  2  1  0
M  END
> <Smiles>
O=S1CC(OC(=O)O2)C2C1

> <IC50_uM>
0.645654229

> <pIC50>
6.19

> <Activity>
1

$$$$

  SciTegic10102310092D

 11 10  0  0  0  0            999 V2000
    0.0007    0.0004    0.0000 O   0  0
    1.3000    0.7500    0.0000 C   0  0
    2.6000    0.0000    0.0000 C   0  0
    3.9000    0.7500    0.0000 C   0  0  3  0  0  0
    5.2000    0.0000    0.0000 C   0  0
    6.5000    0.7500    0.0000 C   0  0
    7.7999    0.0000    0.0000 O   0  0
    9.0999    0.7500    0.0000 C   0  0
   10.3992    0.0004    0.0000 C   0  0
    6.5000    2.2500    0.0000 O   0  0
    3.9000    2.2500    0.0000 C   0  0
  1  2  1  0
  2  3  1  0
  3  4  1  0
  4  5  1  0
  5  6  1  0
  6  7  1  0
  7  8  1  0
  8  9  1  0
  6 10  2  0
  4 11  1  4
M  END
> <Smiles>
OCCC(CC(OCC)=O)C

> <IC50_uM>
0.645654229

> <pIC50>
6.19

> <Activity>
1

$$$$

  SciTegic10102310092D

 12 12  0  0  0  0            999 V2000
    1.2990   -0.7500    0.0000 C   0  0
    1.2990    0.7500    0.0000 C   0  0
    2.6003    1.4978    0.0000 C   0  0
    3.8990    0.7455    0.0000 C   0  0
    5.1970   -0.0063    0.0000 N   0  0
    0.0000    1.5000    0.0000 C   0  0
   -0.0031    3.0008    0.0000 C   0  0
    1.2946    3.7531    0.0000 O   0  0
   -1.3032    3.7490    0.0000 O   0  0
   -1.2990    0.7500    0.0000 C   0  0
   -1.2990   -0.7500    0.0000 C   0  0
    0.0000   -1.5000    0.0000 C   0  0
  1  2  2  0
  2  3  1  0
  3  4  1  0
  4  5  3  0
  2  6  1  0
  6  7  1  0
  7  8  1  0
  7  9  2  0
  6 10  2  0
 10 11  1  0
 11 12  2  0
 12  1  1  0
M  END
> <Smiles>
c1c(CC#N)c(C(O)=O)ccc1

> <IC50_uM>
0.645654229

> <pIC50>
6.19

> <Activity>
1

$$$$

  SciTegic10102310092D

 12 12  0  0  0  0            999 V2000
    5.1937   -3.0093    0.0000 C   0  0
    3.8933   -3.7570    0.0000 C   0  0
    2.5951   -3.0039    0.0000 C   0  0
    2.5973   -1.5031    0.0000 N   0  0
    1.2990   -0.7500    0.0000 C   0  0
    1.2990    0.7500    0.0000 C   0  0
    0.0000    1.5000    0.0000 C   0  0
   -1.2990    0.7500    0.0000 C   0  0
   -1.2990   -0.7500    0.0000 C   0  0
    0.0000   -1.5000    0.0000 C   0  0
    1.2948   -3.7516    0.0000 N   0  0
    3.8912   -5.2570    0.0000 O   0  0
  1  2  1  0
  2  3  1  0
  3  4  1  0
  4  5  1  0
  5  6  2  0
  6  7  1  0
  7  8  2  0
  8  9  1  0
  9 10  2  0
 10  5  1  0
  3 11  2  0
  2 12  2  0
M  END
> <Smiles>
CC(C(Nc1ccccc1)=N)=O

> <IC50_uM>
0.645654229

> <pIC50>
6.19

> <Activity>
1

$$$$

  SciTegic10102310092D

 12 13  0  0  0  0            999 V2000
    1.2990   -0.7500    0.0000 C   0  0
    1.2990    0.7500    0.0000 C   0  0
    0.0000    1.5000    0.0000 C   0  0
    0.0000    3.0000    0.0000 N   0  0
   -1.2991    3.7500    0.0000 N   0  0
   -1.2991    5.2500    0.0000 C   0  0
   -2.5981    3.0000    0.0000 C   0  0
   -3.8971    3.7500    0.0000 O   0  0
   -1.2990    0.7500    0.0000 C   0  0
   -2.5981    1.5000    0.0000 C   0  0
   -1.2990   -0.7500    0.0000 C   0  0
    0.0000   -1.5000    0.0000 C   0  0
  1  2  2  0
  2  3  1  0
  3  4  2  0
  4  5  1  0
  5  6  1  0
  5  7  1  0
  7  8  2  0
  3  9  1  0
  9 10  2  0
 10  7  1  0
  9 11  1  0
 11 12  2  0
 12  1  1  0
M  END
> <Smiles>
C1=CC(=NN(C)C2=O)C(=C2)C=C1

> <IC50_uM>
0.645654229

> <pIC50>
6.19

> <Activity>
1

$$$$

  SciTegic10102310092D

 12 13  0  0  0  0            999 V2000
    1.2990   -0.7500    0.0000 C   0  0
    1.2990    0.7500    0.0000 C   0  0
    0.0000    1.5000    0.0000 C   0  0
    0.0000    3.0000    0.0000 N   0  0
   -1.2991    3.7500    0.0000 N   0  0
   -1.2991    5.2500    0.0000 C   0  0
   -2.5981    3.0000    0.0000 C   0  0
   -3.8971    3.7500    0.0000 O   0  0
   -2.5981    1.5000    0.0000 C   0  0
   -1.2990    0.7500    0.0000 C   0  0
   -1.2990   -0.7500    0.0000 C   0  0
    0.0000   -1.5000    0.0000 C   0  0
  1  2  2  0
  2  3  1  0
  3  4  1  0
  4  5  1  0
  5  6  1  0
  5  7  1  0
  7  8  2  0
  7  9  1  0
  3 10  2  0
 10  9  1  0
 10 11  1  0
 11 12  2  0
 12  1  1  0
M  END
> <Smiles>
c1cc(NN(C)C(=O)C2)c2cc1

> <IC50_uM>
0.645654229

> <pIC50>
6.19

> <Activity>
1

$$$$

  SciTegic10102310092D

 11 11  0  0  0  0            999 V2000
    1.2990   -0.7500    0.0000 C   0  0
    2.5981   -1.5000    0.0000 O   0  0
    1.2990    0.7500    0.0000 N   0  0
    2.5981    1.5000    0.0000 C   0  0
    0.0000    1.5000    0.0000 C   0  0
   -1.2990    0.7500    0.0000 O   0  0
   -1.2990   -0.7500    0.0000 C   0  0
    0.0000   -1.5000    0.0000 N   0  0
   -0.0031   -3.0008    0.0000 C   0  0
   -1.3039   -3.7494    0.0000 O   0  0
   -1.3070   -5.2494    0.0000 C   0  0
  1  2  2  0
  1  3  1  0
  3  4  1  0
  3  5  1  0
  5  6  1  0
  6  7  1  0
  7  8  1  0
  8  1  1  0
  8  9  1  0
  9 10  1  0
 10 11  1  0
M  END
> <Smiles>
C1(=O)N(C)COCN1COC

> <IC50_uM>
0.645654229

> <pIC50>
6.19

> <Activity>
1

$$$$

  SciTegic10102310092D

 12 17  0  0  0  0            999 V2000
   -2.1694   -0.4722    0.0000 C   0  0  3  0  0  0
   -2.7435   -1.8580    0.0000 C   0  0  3  0  0  0
   -1.3576   -2.4320    0.0000 C   0  0  3  0  0  0
    2.1694   -0.4722    0.0000 C   0  0  3  0  0  0
    2.7435   -1.8580    0.0000 C   0  0  3  0  0  0
    1.3576   -2.4320    0.0000 C   0  0  3  0  0  0
    0.7500   -1.0323    0.0000 C   0  0  3  0  0  0
    1.2135    0.3943    0.0000 N   0  0
    0.0000    1.2760    0.0000 C   0  0
   -1.2135    0.3943    0.0000 N   0  0
    0.0000    2.7760    0.0000 O   0  0
   -0.7500   -1.0323    0.0000 C   0  0  3  0  0  0
  2  1  1  4
  3  2  1  4
  4  3  1  4
  5  4  1  4
  5  2  1  0
  6  5  1  4
  6  1  1  0
  6  7  1  0
  7  4  1  0
  7  8  1  4
  8  9  1  0
  9 10  1  0
  9 11  2  0
  3 12  1  0
 12  1  1  0
 12  7  1  0
 12 10  1  4
M  END
> <Smiles>
C12C3C(C4C3C1C45NC(N6)=O)C256

> <IC50_uM>
0.645654229

> <pIC50>
6.19

> <Activity>
1

$$$$

  SciTegic10102310092D

 11 11  0  0  0  0            999 V2000
   -0.0361   -2.9805    0.0000 O   0  0
    1.2626   -2.2300    0.0000 C   0  0
    1.2990   -0.7500    0.0000 C   0  0
    1.2990    0.7500    0.0000 C   0  0
    0.0000    1.5000    0.0000 O   0  0
   -1.2990    0.7500    0.0000 C   0  0
   -1.2990   -0.7500    0.0000 O   0  0
    0.0000   -1.5000    0.0000 C   0  0
   -1.2636    2.2496    0.0000 C   0  0
   -2.5801   -0.0303    0.0000 C   0  0
    2.5793    0.0316    0.0000 C   0  0
  1  2  1  0
  2  3  1  0
  3  4  1  0
  4  5  1  0
  5  6  1  0
  6  7  1  0
  7  8  1  0
  8  3  1  0
  6  9  1  0
  6 10  1  0
  3 11  1  0
M  END
> <Smiles>
OCC1(COC(OC1)(C)C)C

> <IC50_uM>
0.645654229

> <pIC50>
6.19

> <Activity>
1

$$$$

  SciTegic10102310092D

 29 33  0  0  0  0            999 V2000
   13.5018   -8.4297    0.0000 Sn  0  5
   13.7234   -7.4546    0.0000 C   0  0
   12.9897   -6.7751    0.0000 C   0  0
   13.2112   -5.8000    0.0000 C   0  0
   14.1665   -5.5043    0.0000 C   0  0
   14.9002   -6.1837    0.0000 C   0  0
   14.6786   -7.1589    0.0000 C   0  0
   13.2493   -7.6706    0.0000 C   0  0
   12.2697   -7.4695    0.0000 C   0  0
   11.9541   -6.5206    0.0000 C   0  0
   12.6180   -5.7728    0.0000 C   0  0
   13.5976   -5.9739    0.0000 C   0  0
   13.9132   -6.9228    0.0000 C   0  0
   13.5018   -9.4297    0.0000 N   0  3  3  0  0  0
   13.5018  -10.4297    0.0000 C   0  0
   12.5507   -9.7387    0.0000 C   0  0
   11.9630   -8.9297    0.0000 C   0  0
   10.9630   -8.9297    0.0000 O   0  0
   12.5508   -8.1207    0.0000 O   0  3
   14.4530   -9.7387    0.0000 C   0  0  3  0  0  0
   14.7621  -10.6897    0.0000 C   0  0
   15.0406   -8.9297    0.0000 C   0  0  3  0  0  0
   16.0406   -8.9297    0.0000 C   0  0
   16.5406   -8.0636    0.0000 C   0  0
   17.5406   -8.0636    0.0000 C   0  0
   18.0406   -8.9296    0.0000 C   0  0
   17.5406   -9.7956    0.0000 C   0  0
   16.5406   -9.7956    0.0000 C   0  0
   14.4529   -8.1207    0.0000 O   0  3
  1  2  1  0
  2  3  2  0
  3  4  1  0
  4  5  2  0
  5  6  1  0
  2  7  1  0
  7  6  2  0
  1  8  1  0
  8  9  2  0
  9 10  1  0
 10 11  2  0
 11 12  1  0
  8 13  1  0
 13 12  2  0
  1 14  1  0
 14 15  1  4
 14 16  1  0
 16 17  1  0
 17 18  2  0
 17 19  1  0
 19  1  1  0
 14 20  1  0
 20 21  1  4
 20 22  1  0
 22 23  1  4
 23 24  2  0
 24 25  1  0
 25 26  2  0
 26 27  1  0
 27 28  2  0
 28 23  1  0
 22 29  1  0
 29  1  1  0
M  CHG  4   1  -1  14   1  19   1  29   1
M  END
> <Smiles>
[Sn-]12(c(cccc3)c3)(c(cccc4)c4)[N+](C)(CC(=O)[OH+]1)C(C)C(c5ccccc5)[OH+]2

> <IC50_uM>
0.645654229

> <pIC50>
6.19

> <Activity>
1

$$$$

  SciTegic10102310092D

 34 37  0  0  0  0            999 V2000
    5.1965   -1.5117    0.0000 C   0  0
    3.8999   -0.7576    0.0000 C   0  0
    2.5973   -1.5031    0.0000 N   0  0
    1.2990   -0.7500    0.0000 C   0  0
    1.2990    0.7500    0.0000 N   0  0
    0.0000    1.5000    0.0000 C   0  0
   -0.0031    3.0008    0.0000 N   0  0
   -1.3039    3.7494    0.0000 C   0  0
   -1.3092    5.2494    0.0000 C   0  0
   -2.6108    5.9949    0.0000 C   0  0
   -3.9073    5.2404    0.0000 C   0  0
   -5.2096    5.9863    0.0000 C   0  0
   -6.5112    6.7318    0.0000 N   0  0
   -3.9021    3.7404    0.0000 C   0  0
   -2.6005    2.9949    0.0000 C   0  0
   -1.2990    0.7500    0.0000 N   0  0
   -1.2990   -0.7500    0.0000 C   0  0
   -2.5972   -1.5031    0.0000 O   0  0
   -2.5951   -3.0039    0.0000 C   0  0
   -3.8915   -3.7585    0.0000 C   0  0
   -5.1932   -3.0131    0.0000 C   0  0
   -3.8863   -5.2585    0.0000 C   0  0
   -2.5847   -6.0040    0.0000 C   0  0
   -2.5795   -7.5040    0.0000 C   0  0
   -1.2883   -5.2495    0.0000 C   0  0
   -1.2935   -3.7495    0.0000 C   0  0
    0.0030   -2.9951    0.0000 C   0  0
    0.0000   -1.5000    0.0000 N   0  0
    2.5951   -3.0039    0.0000 N   0  0
    3.8915   -3.7585    0.0000 C   0  0
    3.8864   -5.2585    0.0000 C   0  0
    2.5847   -6.0040    0.0000 O   0  0
    1.2883   -5.2495    0.0000 C   0  0
    1.2935   -3.7495    0.0000 C   0  0
  1  2  1  0
  2  3  1  0
  3  4  1  0
  4  5  2  0
  5  6  1  0
  6  7  1  0
  7  8  1  0
  8  9  2  0
  9 10  1  0
 10 11  2  0
 11 12  1  0
 12 13  3  0
 11 14  1  0
 14 15  2  0
 15  8  1  0
  6 16  2  0
 16 17  1  0
 17 18  1  0
 18 19  1  0
 19 20  2  0
 20 21  1  0
 20 22  1  0
 22 23  2  0
 23 24  1  0
 23 25  1  0
 25 26  2  0
 26 19  1  0
 26 27  1  0
 17 28  2  0
 28  4  1  0
  3 29  1  0
 29 30  1  0
 30 31  1  0
 31 32  1  0
 32 33  1  0
 33 34  1  0
 34 29  1  0
M  END
> <Smiles>
CCN(c1nc(Nc2ccc(C#N)cc2)nc(Oc2c(C)cc(C)cc2C)n1)N1CCOCC1

> <IC50_uM>
0.65

> <pIC50>
6.187086643

> <Activity>
1

$$$$

  SciTegic10102310092D

 31 34  0  0  0  0            999 V2000
    3.1676   -7.5606    0.0000 C   0  0
    1.7006   -7.2475    0.0000 C   0  0
    0.6960   -8.3614    0.0000 C   0  0
   -0.7710   -8.0483    0.0000 C   0  0
   -1.7756   -9.1622    0.0000 C   0  0
   -1.2333   -6.6213    0.0000 C   0  0
   -0.2287   -5.5075    0.0000 C   0  0
   -0.6913   -4.0797    0.0000 S   0  0
   -2.1584   -3.7671    0.0000 O   0  0
   -1.6957   -5.1937    0.0000 O   0  0
    0.3114   -2.9665    0.0000 C   0  0
    1.8032   -3.1233    0.0000 C   0  0
    2.5551   -4.4192    0.0000 C   0  0
    1.8074   -5.7196    0.0000 O   0  0
    4.0559   -4.4171    0.0000 N   0  0
    4.8090   -5.7153    0.0000 C   0  0
    6.3098   -5.7131    0.0000 C   0  0
    7.0629   -7.0113    0.0000 N   0  0
    8.5438   -7.1491    0.0000 C   0  0
    8.8557   -8.6163    0.0000 C   0  0
    7.5567   -9.3664    0.0000 C   0  0
    6.4419   -8.3627    0.0000 C   0  0
    2.4133   -1.7530    0.0000 N   0  0
    1.2990   -0.7500    0.0000 C   0  0
    1.2990    0.7500    0.0000 C   0  0
    0.0000    1.5000    0.0000 C   0  0
   -1.2990    0.7500    0.0000 C   0  0
   -2.5981    1.5000    0.0000 Cl  0  0
   -1.2990   -0.7500    0.0000 C   0  0
    0.0000   -1.5000    0.0000 C   0  0
    1.2383   -5.8206    0.0000 C   0  0
  1  2  1  0
  2  3  2  0
  3  4  1  0
  4  5  1  0
  4  6  2  0
  6  7  1  0
  7  8  1  0
  8  9  2  0
  8 10  2  0
  8 11  1  0
 11 12  2  0
 12 13  1  0
 13 14  2  0
 13 15  1  0
 15 16  1  0
 16 17  1  0
 17 18  1  0
 18 19  1  0
 19 20  1  0
 20 21  1  0
 21 22  1  0
 22 18  1  0
 12 23  1  0
 23 24  1  0
 24 25  2  0
 25 26  1  0
 26 27  2  0
 27 28  1  0
 27 29  1  0
 29 30  2  0
 30 11  1  0
 30 24  1  0
  7 31  2  0
 31  2  1  0
M  END
> <Smiles>
Cc1cc(C)cc(S(=O)(=O)c2c(C(=O)NCCN3CCCC3)[nH]c3ccc(Cl)cc23)c1

> <IC50_uM>
0.66

> <pIC50>
6.180456064

> <Activity>
1

$$$$

  SciTegic10102310092D

 12 13  0  0  0  0            999 V2000
    2.5981   -1.5000    0.0000 N   0  0
    1.2990   -0.7500    0.0000 C   0  0
    1.2990    0.7500    0.0000 N   0  0
    0.0000    1.5000    0.0000 C   0  0
   -1.2990    0.7500    0.0000 N   0  0
   -1.2990   -0.7500    0.0000 C   0  0
   -2.4133   -1.7530    0.0000 N   0  0
   -1.8032   -3.1233    0.0000 N   0  0
   -0.3114   -2.9665    0.0000 C   0  0
   -3.8805   -1.4410    0.0000 C   0  0
    0.0000   -1.5000    0.0000 C   0  0
    0.0000    3.0000    0.0000 C   0  0
  1  2  1  0
  2  3  2  0
  3  4  1  0
  4  5  2  0
  5  6  1  0
  6  7  1  0
  7  8  1  0
  8  9  2  0
  7 10  1  0
  6 11  2  0
 11  2  1  0
 11  9  1  0
  4 12  1  0
M  END
> <Smiles>
Nc1nc(nc(n(nc2)C)c12)C

> <IC50_uM>
0.660693448

> <pIC50>
6.18

> <Activity>
1

$$$$

  SciTegic10102310092D

 12 13  0  0  0  0            999 V2000
    2.5981   -1.5000    0.0000 O   0  0
    1.2990   -0.7500    0.0000 C   0  0
    1.2990    0.7500    0.0000 C   0  0
    0.0000    1.5000    0.0000 N   0  0
   -1.2990    0.7500    0.0000 C   0  0
   -1.2990   -0.7500    0.0000 C   0  0
   -2.4133   -1.7530    0.0000 C   0  0
   -1.8032   -3.1233    0.0000 O   0  0
   -0.3114   -2.9665    0.0000 C   0  0
   -3.8805   -1.4410    0.0000 O   0  0
    0.0000   -1.5000    0.0000 C   0  0
    2.5981    1.5000    0.0000 C   0  0
  1  2  1  0
  2  3  2  0
  3  4  1  0
  4  5  2  0
  5  6  1  0
  6  7  1  0
  7  8  1  0
  8  9  1  0
  7 10  2  0
  6 11  2  0
 11  2  1  0
 11  9  1  0
  3 12  1  0
M  END
> <Smiles>
Oc1c(ncc(C(OC2)=O)c12)C

> <IC50_uM>
0.660693448

> <pIC50>
6.18

> <Activity>
1

$$$$

  SciTegic10102310092D

 12 14  0  0  0  0            999 V2000
    1.2990   -0.7500    0.0000 C   0  0  3  0  0  0
    1.2990    0.7500    0.0000 C   0  0
    2.7248    1.2135    0.0000 O   0  0
    3.6065    0.0000    0.0000 C   0  0
    2.7248   -1.2135    0.0000 C   0  0
    0.0000    1.5000    0.0000 N   0  0
   -1.2990    0.7500    0.0000 C   0  0  3  0  0  0
   -2.7248    1.2135    0.0000 C   0  0
   -3.6065    0.0000    0.0000 C   0  0
   -2.7248   -1.2135    0.0000 O   0  0
   -1.2990   -0.7500    0.0000 C   0  0
    0.0000   -1.5000    0.0000 N   0  0
  1  2  1  0
  2  3  1  0
  3  4  1  0
  4  5  1  0
  1  5  1  4
  2  6  2  0
  7  6  1  4
  7  8  1  0
  8  9  1  0
  9 10  1  0
  7 11  1  0
 11 10  1  0
 11 12  2  0
 12  1  1  0
M  END
> <Smiles>
C12C(OCC1)=NC(CCO3)C3=N2

> <IC50_uM>
0.660693448

> <pIC50>
6.18

> <Activity>
1

$$$$

  SciTegic10102310092D

 12 16  0  0  0  0            999 V2000
    0.4400   -0.9400    0.0000 C   0  0  3  0  0  0
    0.4400    0.4800    0.0000 C   0  0  3  0  0  0
    1.8000    0.9200    0.0000 C   0  0
    2.6400   -0.2200    0.0000 C   0  0  3  0  0  0
    3.2300   -1.5300    0.0000 O   0  0
    1.8000   -1.3900    0.0000 C   0  0  3  0  0  0
   -0.7900    1.1900    0.0000 C   0  0  3  0  0  0
   -2.0200    0.4800    0.0000 C   0  0  3  0  0  0
   -3.2700   -0.2200    0.0000 O   0  0
   -2.0200   -0.9400    0.0000 C   0  0  3  0  0  0
   -1.4200    2.4400    0.0000 C   0  0
   -0.8000   -0.2600    0.0000 C   0  0  3  0  0  0
  1  2  1  4
  2  3  1  4
  4  3  1  4
  4  5  1  0
  4  6  1  0
  6  1  1  0
  6  5  1  4
  2  7  1  0
  7  8  1  0
  8  9  1  4
  8 10  1  0
 10  9  1  4
  7 11  1  4
 12 11  1  4
 12  1  1  0
 12 10  1  0
M  END
> <Smiles>
C12C(CC(O3)C13)C(C(O4)C45)CC25

> <IC50_uM>
0.660693448

> <pIC50>
6.18

> <Activity>
1

$$$$

  SciTegic10102310092D

 12 13  0  0  0  0            999 V2000
   -0.6890   -4.0818    0.0000 C   0  0
    0.3114   -2.9665    0.0000 C   0  0
    1.8032   -3.1233    0.0000 O   0  0
    2.4133   -1.7530    0.0000 N   0  0
    1.2990   -0.7500    0.0000 C   0  0
    1.2990    0.7500    0.0000 C   0  0
    0.0000    1.5000    0.0000 C   0  0
   -1.2990    0.7500    0.0000 C   0  0
   -1.2990   -0.7500    0.0000 C   0  0
    0.0000   -1.5000    0.0000 C   0  0
   -2.1567   -3.7722    0.0000 O   0  0
   -0.2237   -5.5078    0.0000 O   0  0
  1  2  1  0
  2  3  1  0
  3  4  1  0
  4  5  2  0
  5  6  1  0
  6  7  2  0
  7  8  1  0
  8  9  2  0
  5 10  1  0
 10  2  2  0
 10  9  1  0
  1 11  1  0
  1 12  2  0
M  END
> <Smiles>
C(c1onc(cccc2)c12)(O)=O

> <IC50_uM>
0.660693448

> <pIC50>
6.18

> <Activity>
1

$$$$

  SciTegic10102310092D

  9  9  0  0  0  0            999 V2000
    1.6281   -2.2462    0.0000 O   0  0
    0.7500   -1.0323    0.0000 C   0  0
    1.2135    0.3943    0.0000 N   0  0
    0.0000    1.2760    0.0000 N   0  0
   -1.2135    0.3943    0.0000 C   0  0
   -2.6401    0.8578    0.0000 C   0  0
   -0.7500   -1.0323    0.0000 O   0  0
    1.0157   -3.6164    0.0000 C   0  0
    1.8949   -4.8318    0.0000 C   0  0
  1  2  1  0
  2  3  2  0
  3  4  1  0
  4  5  2  0
  5  6  1  0
  5  7  1  0
  7  2  1  0
  1  8  1  0
  8  9  1  0
M  END
> <Smiles>
O(c1nnc(C)o1)CC

> <IC50_uM>
0.660693448

> <pIC50>
6.18

> <Activity>
1

$$$$

  SciTegic10102310092D

  9  9  0  0  0  0            999 V2000
    0.1233   -2.3813    0.0000 C   0  0
    0.7500   -1.0323    0.0000 C   0  0
    1.2135    0.3943    0.0000 C   0  0
    0.0000    1.2760    0.0000 S   0  0
   -1.2135    0.3943    0.0000 S   0  0
   -0.7500   -1.0323    0.0000 C   0  0
    2.2391   -0.8519    0.0000 N   0  0
    1.0051   -3.5948    0.0000 O   0  0
   -1.3684   -2.5387    0.0000 O   0  0
  1  2  1  0
  2  3  1  0
  3  4  1  0
  4  5  1  0
  5  6  1  0
  6  2  1  0
  2  7  1  0
  1  8  1  0
  1  9  2  0
M  END
> <Smiles>
C(C1(CSSC1)N)(O)=O

> <IC50_uM>
0.660693448

> <pIC50>
6.18

> <Activity>
1

$$$$

  SciTegic10102310092D

 10  9  0  0  0  0            999 V2000
    2.6000    0.0000    0.0000 C   0  0  3  0  0  0
    2.6031   -1.5008    0.0000 C   0  0
    3.9032   -2.2490    0.0000 S   0  0
    1.3000    0.7500    0.0000 C   0  0
    1.3000    2.2500    0.0000 O   0  0
    0.0007    0.0004    0.0000 O   0  0
    3.9000    0.7500    0.0000 N   0  0
    5.2000    0.0000    0.0000 C   0  0
    6.4992    0.7496    0.0000 O   0  0
    5.2000   -1.5000    0.0000 C   0  0
  1  2  1  4
  2  3  1  0
  1  4  1  0
  4  5  1  0
  4  6  2  0
  1  7  1  0
  7  8  1  0
  8  9  2  0
  8 10  1  0
M  END
> <Smiles>
C(CS)(C(O)=O)NC(=O)C

> <IC50_uM>
0.660693448

> <pIC50>
6.18

> <Activity>
1

$$$$

  SciTegic10102310092D

 12 12  0  0  0  0            999 V2000
    3.1476   -0.7184    0.0000 O   0  0
    1.6852   -0.3846    0.0000 C   0  0
    1.3514    1.0778    0.0000 C   0  0  3  0  0  0
    0.0000    1.7286    0.0000 C   0  0
   -1.3515    1.0777    0.0000 C   0  0
   -2.5242    2.0130    0.0000 C   0  0
   -1.6852   -0.3847    0.0000 C   0  0
   -0.7500   -1.5574    0.0000 C   0  0
   -1.4008   -2.9088    0.0000 C   0  0
    0.7500   -1.5574    0.0000 N   0  0
    1.4008   -2.9088    0.0000 C   0  0
    2.5242    2.0130    0.0000 C   0  0
  1  2  2  0
  2  3  1  0
  3  4  1  0
  4  5  2  0
  5  6  1  0
  5  7  1  0
  7  8  2  0
  8  9  1  0
  8 10  1  0
 10  2  1  0
 10 11  1  0
  3 12  1  4
M  END
> <Smiles>
O=C1C(C=C(C)C=C(C)N1C)C

> <IC50_uM>
0.660693448

> <pIC50>
6.18

> <Activity>
1

$$$$

  SciTegic10102310092D

  9  9  0  0  0  0            999 V2000
    2.5973   -1.5031    0.0000 C   0  0
    1.2990   -0.7500    0.0000 C   0  0
    1.2990    0.7500    0.0000 S   0  0
    0.0000    1.5000    0.0000 C   0  0
   -1.2990    0.7500    0.0000 C   0  0
   -1.2990   -0.7500    0.0000 C   0  0
    0.0000   -1.5000    0.0000 S   0  0
    3.8976   -0.7553    0.0000 O   0  0
    2.5951   -3.0031    0.0000 O   0  0
  1  2  1  0
  2  3  1  0
  3  4  1  0
  4  5  1  0
  5  6  1  0
  6  7  1  0
  7  2  1  0
  1  8  1  0
  1  9  2  0
M  END
> <Smiles>
C(C1SCCCS1)(O)=O

> <IC50_uM>
0.660693448

> <pIC50>
6.18

> <Activity>
1

$$$$

  SciTegic10102310092D

  9  9  0  0  0  0            999 V2000
    1.6281   -2.2462    0.0000 C   0  0
    0.7500   -1.0323    0.0000 N   0  0
    1.2135    0.3943    0.0000 N   0  0
    0.0000    1.2760    0.0000 O   0  0
   -1.2135    0.3943    0.0000 C   0  0
   -2.6401    0.8578    0.0000 N   0  0
   -0.7500   -1.0323    0.0000 N   0  0
    1.0157   -3.6164    0.0000 C   0  0
    1.8949   -4.8318    0.0000 C   0  0
  1  2  1  0
  2  3  1  0
  3  4  1  0
  4  5  1  0
  5  6  2  0
  5  7  1  0
  7  2  1  0
  1  8  1  0
  8  9  1  0
M  END
> <Smiles>
C(N1NOC(=N)N1)CC

> <IC50_uM>
0.660693448

> <pIC50>
6.18

> <Activity>
1

$$$$

  SciTegic10102310092D

 10 10  0  0  0  0            999 V2000
    1.6307   -2.2444    0.0000 S   0  0
    0.7500   -1.0323    0.0000 C   0  0
    1.2135    0.3943    0.0000 N   0  0
    0.0000    1.2760    0.0000 C   0  0
   -1.2135    0.3943    0.0000 O   0  0
   -0.7500   -1.0323    0.0000 N   0  0
    0.0000    2.7760    0.0000 N   0  0
    3.1225   -2.0885    0.0000 O   0  0
    1.0201   -3.6145    0.0000 O   0  0
    2.5118   -3.4583    0.0000 C   0  0
  1  2  1  0
  2  3  2  0
  3  4  1  0
  4  5  1  0
  5  6  1  0
  6  2  1  0
  4  7  2  0
  1  8  2  0
  1  9  2  0
  1 10  1  0
M  END
> <Smiles>
S(C1=NC(ON1)=N)(=O)(=O)C

> <IC50_uM>
0.660693448

> <pIC50>
6.18

> <Activity>
1

$$$$

  SciTegic10102310092D

 12 12  0  0  0  0            999 V2000
    1.6281   -2.2462    0.0000 C   0  0
    0.7500   -1.0323    0.0000 C   0  0
    1.2135    0.3943    0.0000 C   0  0
    0.0000    1.2760    0.0000 O   0  0
   -1.2135    0.3943    0.0000 C   0  0
   -0.7500   -1.0323    0.0000 C   0  0
    3.1202   -2.0921    0.0000 O   0  0
    1.0157   -3.6164    0.0000 C   0  0
    1.8954   -4.8324    0.0000 C   0  0
    1.2830   -6.2026    0.0000 C   0  0
    2.1621   -7.4180    0.0000 C   0  0
   -0.2091   -6.3568    0.0000 C   0  0
  1  2  1  0
  2  3  2  0
  3  4  1  0
  4  5  1  0
  5  6  2  0
  6  2  1  0
  1  7  2  0
  1  8  1  0
  8  9  1  0
  9 10  1  0
 10 11  1  0
 10 12  1  0
M  END
> <Smiles>
C(c1cocc1)(=O)CCC(C)C

> <IC50_uM>
0.660693448

> <pIC50>
6.18

> <Activity>
1

$$$$

  SciTegic10102310092D

 10 10  0  0  0  0            999 V2000
    1.2626   -2.2300    0.0000 C   0  0
    1.2990   -0.7500    0.0000 P   0  0
    1.2990    0.7500    0.0000 C   0  0
    0.0000    1.5000    0.0000 N   0  0
   -1.2990    0.7500    0.0000 C   0  0
   -2.5981    1.5000    0.0000 O   0  0
   -1.2990   -0.7500    0.0000 N   0  0
    0.0000   -1.5000    0.0000 C   0  0
    2.5793    0.0316    0.0000 O   0  0
   -0.0361   -2.9805    0.0000 N   0  0
  1  2  1  0
  2  3  1  0
  3  4  1  0
  4  5  1  0
  5  6  2  0
  5  7  1  0
  7  8  1  0
  8  2  1  0
  2  9  2  0
  1 10  1  0
M  END
> <Smiles>
C(P1(CNC(=O)NC1)=O)N

> <IC50_uM>
0.660693448

> <pIC50>
6.18

> <Activity>
1

$$$$

  SciTegic10102310092D

 12 13  0  0  0  0            999 V2000
    2.5981   -1.5000    0.0000 O   0  0
    1.2990   -0.7500    0.0000 C   0  0
    1.2990    0.7500    0.0000 N   0  0
    0.0000    1.5000    0.0000 C   0  0
   -1.2990    0.7500    0.0000 C   0  0
   -1.2990   -0.7500    0.0000 C   0  0
   -2.4133   -1.7530    0.0000 N   0  0
   -1.8032   -3.1233    0.0000 C   0  0
   -2.5532   -4.4223    0.0000 C   0  0
   -0.3114   -2.9665    0.0000 N   0  0
    0.0000   -1.5000    0.0000 N   0  0
    0.0000    3.0000    0.0000 C   0  0
  1  2  2  0
  2  3  1  0
  3  4  1  0
  4  5  2  0
  5  6  1  0
  6  7  2  0
  7  8  1  0
  8  9  1  0
  8 10  2  0
  6 11  1  0
 11  2  1  0
 11 10  1  0
  4 12  1  0
M  END
> <Smiles>
O=C1NC(=Cc(nc(C)n2)n12)C

> <IC50_uM>
0.660693448

> <pIC50>
6.18

> <Activity>
1

$$$$

  SciTegic10102310092D

 12 16  0  0  0  0            999 V2000
   14.5587   11.4416    0.0000 C   0  0  3  0  0  0
   14.5587   13.0468    0.0000 C   0  0  3  0  0  0
   13.6814   13.9241    0.0000 C   0  0  3  0  0  0
   12.0762   13.9241    0.0000 C   0  0  3  0  0  0
   12.9535   13.0468    0.0000 C   0  0  3  0  0  0
   12.9535   11.4416    0.0000 C   0  0  3  0  0  0
   13.6814   12.3189    0.0000 C   0  0  3  0  0  0
   12.0762   12.3189    0.0000 C   0  0  3  0  0  0
   10.7079   11.7375    0.0000 C   0  0
   10.5227   10.2490    0.0000 O   0  0
   15.9272   13.6277    0.0000 C   0  0
   17.1245   12.7241    0.0000 O   0  0
  1  2  1  4
  3  2  1  4
  4  3  1  4
  5  4  1  4
  5  2  1  0
  6  5  1  4
  6  1  1  0
  7  3  1  4
  7  1  1  0
  7  8  1  0
  8  4  1  0
  8  6  1  0
  8  9  1  4
  9 10  1  0
  2 11  1  4
 11 12  1  0
M  END
> <Smiles>
C12C3(C(C4C3C15)C2C45CO)CO

> <IC50_uM>
0.660693448

> <pIC50>
6.18

> <Activity>
1

$$$$

  SciTegic10102310092D

 12 12  0  0  0  0            999 V2000
    1.2990   -0.7500    0.0000 C   0  0
    1.2990    0.7500    0.0000 C   0  0
    0.0000    1.5000    0.0000 N   0  0
    0.0000    3.0000    0.0000 C   0  0
   -1.2990    0.7500    0.0000 C   0  0
   -2.5981    1.5000    0.0000 O   0  0
   -1.2990   -0.7500    0.0000 C   0  0
   -2.5988   -1.5004    0.0000 C   0  0
   -3.8978   -2.2504    0.0000 N   0  0
    0.0000   -1.5000    0.0000 C   0  0
    0.0031   -3.0008    0.0000 O   0  0
    1.3032   -3.7490    0.0000 C   0  0
  1  2  2  0
  2  3  1  0
  3  4  1  0
  3  5  1  0
  5  6  2  0
  5  7  1  0
  7  8  1  0
  8  9  3  0
  7 10  2  0
 10  1  1  0
 10 11  1  0
 11 12  1  0
M  END
> <Smiles>
C1=CN(C)C(=O)C(C#N)=C1OC

> <IC50_uM>
0.660693448

> <pIC50>
6.18

> <Activity>
1

$$$$

  SciTegic10102310092D

 12 14  0  0  0  0            999 V2000
    3.1752   -2.3024    0.0000 C   0  0
    4.3941   -1.4296    0.0000 C   0  0
    3.9276    0.0000    0.0000 C   0  0
    5.3121    0.6019    0.0000 C   0  0
    4.0931    1.4898    0.0000 C   0  0
    2.4228    0.0000    0.0000 C   0  0  3  0  0  0
    1.9563   -1.4296    0.0000 C   0  0  3  0  0  0
    0.4514   -1.4296    0.0000 N   0  0
   -0.4352   -2.6395    0.0000 O   0  0
    0.0000    0.0000    0.0000 C   0  0
   -1.4225    0.4760    0.0000 O   0  0
    1.2039    0.8578    0.0000 C   0  0
  1  2  2  0
  2  3  1  0
  3  4  1  0
  4  5  1  0
  5  3  1  0
  3  6  1  0
  6  7  1  0
  7  1  1  4
  7  8  1  0
  8  9  1  0
  8 10  1  0
 10 11  2  0
 10 12  1  0
  6 12  1  4
M  END
> <Smiles>
C1=CC2(CC2)C3C1N(O)C(=O)C3

> <IC50_uM>
0.660693448

> <pIC50>
6.18

> <Activity>
1

$$$$

  SciTegic10102310092D

 12 13  0  0  0  0            999 V2000
    1.6852   -0.3846    0.0000 C   0  0
    1.3514    1.0778    0.0000 C   0  0
    2.5242    2.0130    0.0000 C   0  0
    0.0000    1.7286    0.0000 C   0  0
   -1.3515    1.0777    0.0000 C   0  0
   -1.6852   -0.3847    0.0000 N   0  0
   -0.7500   -1.5574    0.0000 N   0  0
   -0.7500   -3.0563    0.0000 C   0  0
    0.7500   -3.0563    0.0000 C   0  0  3  0  0  0
    1.8107   -4.1169    0.0000 C   0  0
   -1.8106   -4.1170    0.0000 O   0  0
    0.7500   -1.5574    0.0000 C   0  0  3  0  0  0
  1  2  1  0
  2  3  1  0
  2  4  2  0
  4  5  1  0
  5  6  2  0
  6  7  1  0
  7  8  1  0
  8  9  1  0
  9 10  1  4
  8 11  2  0
  7 12  1  0
 12  1  1  4
 12  9  1  0
M  END
> <Smiles>
C1C(C)=CC=NN(C(C2C)=O)C12

> <IC50_uM>
0.660693448

> <pIC50>
6.18

> <Activity>
1

$$$$

  SciTegic10102310092D

 12 12  0  0  0  0            999 V2000
    5.1937   -3.0093    0.0000 C   0  0
    3.8933   -3.7570    0.0000 C   0  0
    2.5951   -3.0039    0.0000 N   0  0
    2.5973   -1.5031    0.0000 C   0  0
    1.2990   -0.7500    0.0000 C   0  0
    1.2990    0.7500    0.0000 C   0  0
    0.0000    1.5000    0.0000 C   0  0
   -1.2990    0.7500    0.0000 C   0  0
   -1.2990   -0.7500    0.0000 C   0  0
    0.0000   -1.5000    0.0000 C   0  0
    1.2948   -3.7516    0.0000 O   0  0
    3.8912   -5.2570    0.0000 O   0  0
  1  2  1  0
  2  3  1  0
  3  4  1  0
  4  5  1  0
  5  6  2  0
  6  7  1  0
  7  8  2  0
  8  9  1  0
  9 10  2  0
 10  5  1  0
  3 11  1  0
  2 12  2  0
M  END
> <Smiles>
CC(N(Cc1ccccc1)O)=O

> <IC50_uM>
0.660693448

> <pIC50>
6.18

> <Activity>
1

$$$$

  SciTegic10102310092D

 12 13  0  0  0  0            999 V2000
    0.9488    0.0000    0.0000 C   0  0
    1.4647    1.4085    0.0000 C   0  0
    1.8975   -0.8028    0.0000 C   0  0
    1.6421    0.6933    0.0000 C   0  0
    0.0000    0.6568    0.0000 C   0  0  3  0  0  0
    0.9335   -0.5217    0.0000 C   0  0
    1.8676   -1.6954    0.0000 N   0  0
   -0.6568   -0.6386    0.0000 C   0  0
   -1.8063   -1.3319    0.0000 C   0  0
   -1.0947    1.4779    0.0000 C   0  0  3  0  0  0
   -0.8393    0.0000    0.0000 C   0  0  3  0  0  0
   -1.8778    2.7573    0.0000 O   0  0
  1  2  1  0
  1  3  2  0
  3  4  1  0
  4  5  1  0
  5  6  1  4
  6  7  3  0
  5  8  1  0
  8  9  1  0
  5 10  1  0
 10 11  1  0
 11  1  1  0
 11  9  1  4
 10 12  1  4
M  END
> <Smiles>
C1(C)=CCC(C#N)(CC2)C(C12)O

> <IC50_uM>
0.660693448

> <pIC50>
6.18

> <Activity>
1

$$$$

  SciTegic10102310092D

 11 12  0  0  0  0            999 V2000
    1.2990   -0.7500    0.0000 N   0  0
    1.2990    0.7500    0.0000 C   0  0
    0.0000    1.5000    0.0000 C   0  0
   -1.2990    0.7500    0.0000 C   0  0
   -2.5981    1.5000    0.0000 S   0  0
   -3.8971    0.7500    0.0000 C   0  0
   -3.8971   -0.7500    0.0000 C   0  0
   -5.1961   -1.5000    0.0000 O   0  0
   -2.5981   -1.5000    0.0000 N   0  0
   -1.2990   -0.7500    0.0000 C   0  0
    0.0000   -1.5000    0.0000 C   0  0
  1  2  2  0
  2  3  1  0
  3  4  2  0
  4  5  1  0
  5  6  1  0
  6  7  1  0
  7  8  2  0
  7  9  1  0
  4 10  1  0
 10  9  1  0
 10 11  2  0
 11  1  1  0
M  END
> <Smiles>
n1ccc(SCC(=O)N2)c2c1

> <IC50_uM>
0.660693448

> <pIC50>
6.18

> <Activity>
1

$$$$

  SciTegic10102310092D

 12 13  0  0  0  0            999 V2000
    1.2990   -0.7500    0.0000 C   0  0
    1.2990    0.7500    0.0000 C   0  0
    2.5981    1.5000    0.0000 F   0  0
    0.0000    1.5000    0.0000 C   0  0
   -1.2990    0.7500    0.0000 C   0  0
   -2.7248    1.2135    0.0000 N   0  0
   -3.6065    0.0000    0.0000 C   0  0
   -5.1065    0.0000    0.0000 O   0  0
   -2.7248   -1.2135    0.0000 C   0  0
   -3.1882   -2.6402    0.0000 O   0  0
   -1.2990   -0.7500    0.0000 C   0  0
    0.0000   -1.5000    0.0000 C   0  0
  1  2  2  0
  2  3  1  0
  2  4  1  0
  4  5  2  0
  5  6  1  0
  6  7  1  0
  7  8  2  0
  7  9  1  0
  9 10  2  0
  5 11  1  0
 11  9  1  0
 11 12  2  0
 12  1  1  0
M  END
> <Smiles>
c1c(F)cc(NC(=O)C2=O)c2c1

> <IC50_uM>
0.660693448

> <pIC50>
6.18

> <Activity>
1

$$$$

  SciTegic10102310092D

 12 12  0  0  0  0            999 V2000
    1.2990   -0.7500    0.0000 C   0  0
    2.5973   -1.5031    0.0000 N   0  0
    2.5951   -3.0039    0.0000 C   0  0
    3.8926   -3.7566    0.0000 O   0  0
    1.2990    0.7500    0.0000 C   0  0
    0.0000    1.5000    0.0000 C   0  0
   -1.2990    0.7500    0.0000 C   0  0
   -1.2990   -0.7500    0.0000 C   0  0
   -2.5972   -1.5031    0.0000 C   0  0
   -3.8976   -0.7554    0.0000 N   0  0
   -2.5951   -3.0031    0.0000 O   0  0
    0.0000   -1.5000    0.0000 C   0  0
  1  2  1  0
  2  3  1  0
  3  4  2  0
  1  5  2  0
  5  6  1  0
  6  7  2  0
  7  8  1  0
  8  9  1  0
  9 10  1  0
  9 11  2  0
  8 12  2  0
 12  1  1  0
M  END
> <Smiles>
c1(NC=O)cccc(C(N)=O)c1

> <IC50_uM>
0.660693448

> <pIC50>
6.18

> <Activity>
1

$$$$

  SciTegic10102310092D

 12 12  0  0  0  0            999 V2000
    1.2990   -0.7500    0.0000 C   0  0
    1.2990    0.7500    0.0000 C   0  0
    2.5972    1.5031    0.0000 N   0  0
    2.5951    3.0039    0.0000 C   0  0
    3.8926    3.7566    0.0000 O   0  0
    0.0000    1.5000    0.0000 C   0  0
   -1.2990    0.7500    0.0000 C   0  0
   -1.2990   -0.7500    0.0000 C   0  0
   -2.5972   -1.5031    0.0000 C   0  0
   -3.8976   -0.7554    0.0000 N   0  0
   -2.5951   -3.0031    0.0000 O   0  0
    0.0000   -1.5000    0.0000 C   0  0
  1  2  2  0
  2  3  1  0
  3  4  1  0
  4  5  2  0
  2  6  1  0
  6  7  2  0
  7  8  1  0
  8  9  1  0
  9 10  1  0
  9 11  2  0
  8 12  2  0
 12  1  1  0
M  END
> <Smiles>
c1c(NC=O)ccc(C(N)=O)c1

> <IC50_uM>
0.660693448

> <pIC50>
6.18

> <Activity>
1

$$$$

  SciTegic10102310092D

 35 38  0  0  0  0            999 V2000
    3.1676   -7.5606    0.0000 C   0  0
    1.7006   -7.2475    0.0000 C   0  0
    0.6960   -8.3614    0.0000 C   0  0
   -0.7710   -8.0483    0.0000 C   0  0
   -1.7756   -9.1622    0.0000 C   0  0
   -1.2333   -6.6213    0.0000 C   0  0
   -0.2287   -5.5075    0.0000 C   0  0
   -0.6913   -4.0797    0.0000 S   0  0
   -2.1584   -3.7671    0.0000 O   0  0
   -1.6957   -5.1937    0.0000 O   0  0
    0.3114   -2.9665    0.0000 N   0  0
    1.8032   -3.1233    0.0000 C   0  0
    2.5551   -4.4192    0.0000 S   0  0
    4.0559   -4.4171    0.0000 C   0  0
    4.8090   -5.7153    0.0000 C   0  0
    4.0613   -7.0156    0.0000 O   0  0
    6.3098   -5.7131    0.0000 N   0  0
    7.0629   -7.0113    0.0000 C   0  0
    8.5630   -7.0113    0.0000 C   0  0
    9.3130   -8.3103    0.0000 C   0  0
    8.5631   -9.6094    0.0000 C   0  0
    9.3136  -10.9091    0.0000 S   0  0
    8.5632  -12.2079    0.0000 N   0  0
   10.8136  -10.9100    0.0000 O   0  0
   10.0630  -12.2085    0.0000 O   0  0
    7.0631   -9.6094    0.0000 C   0  0
    6.3130   -8.3104    0.0000 C   0  0
    2.4133   -1.7530    0.0000 N   0  0
    1.2990   -0.7500    0.0000 C   0  0
    1.2990    0.7500    0.0000 C   0  0
    0.0000    1.5000    0.0000 C   0  0
   -1.2990    0.7500    0.0000 C   0  0
   -1.2990   -0.7500    0.0000 C   0  0
    0.0000   -1.5000    0.0000 C   0  0
    1.2383   -5.8206    0.0000 C   0  0
  1  2  1  0
  2  3  2  0
  3  4  1  0
  4  5  1  0
  4  6  2  0
  6  7  1  0
  7  8  1  0
  8  9  2  0
  8 10  2  0
  8 11  1  0
 11 12  1  0
 12 13  1  0
 13 14  1  0
 14 15  1  0
 15 16  2  0
 15 17  1  0
 17 18  1  0
 18 19  2  0
 19 20  1  0
 20 21  2  0
 21 22  1  0
 22 23  1  0
 22 24  2  0
 22 25  2  0
 21 26  1  0
 26 27  2  0
 27 18  1  0
 12 28  2  0
 28 29  1  0
 29 30  2  0
 30 31  1  0
 31 32  2  0
 32 33  1  0
 33 34  2  0
 34 29  1  0
 34 11  1  0
  7 35  2  0
 35  2  1  0
M  END
> <Smiles>
Cc1cc(C)cc(S(=O)(=O)n2c(SCC(=O)Nc3ccc(S(N)(=O)=O)cc3)nc3ccccc32)c1

> <IC50_uM>
0.67

> <pIC50>
6.173925197

> <Activity>
1

$$$$

  SciTegic10102310092D

 30 33  0  0  0  0            999 V2000
   -1.3457    8.2218    0.0000 C   0  0
   -0.0415    7.4808    0.0000 C   0  0
    1.2523    8.2398    0.0000 C   0  0
    2.5565    7.4988    0.0000 C   0  0
    2.5670    5.9988    0.0000 C   0  0
    3.8704    5.2547    0.0000 C   0  0
    5.1655    6.0115    0.0000 O   0  0
    3.8787    3.7539    0.0000 C   0  0
    5.1821    3.0099    0.0000 S   0  0
    5.1903    1.5091    0.0000 C   0  0
    6.4920    0.7636    0.0000 N   0  0
    6.4972   -0.7364    0.0000 C   0  0
    7.7988   -1.4819    0.0000 O   0  0
    5.2007   -1.4909    0.0000 C   0  0
    5.2059   -2.9909    0.0000 C   0  0
    3.8990   -0.7455    0.0000 C   0  0
    2.6003   -1.4977    0.0000 C   0  0
    1.2990   -0.7500    0.0000 C   0  0
    1.2990    0.7500    0.0000 C   0  0
    0.0000    1.5000    0.0000 C   0  0
   -1.2990    0.7500    0.0000 C   0  0
   -1.2990   -0.7500    0.0000 C   0  0
   -2.5981   -1.5000    0.0000 C   0  0
   -2.5981   -3.0000    0.0000 C   0  0
   -1.2990   -3.7500    0.0000 C   0  0
    0.0000   -3.0000    0.0000 C   0  0
    0.0000   -1.5000    0.0000 C   0  0
    3.8939    0.7546    0.0000 N   0  0
    1.2731    5.2399    0.0000 C   0  0
   -0.0311    5.9809    0.0000 C   0  0
  1  2  1  0
  2  3  2  0
  3  4  1  0
  4  5  2  0
  5  6  1  0
  6  7  2  0
  6  8  1  0
  8  9  1  0
  9 10  1  0
 10 11  2  0
 11 12  1  0
 12 13  1  0
 12 14  2  0
 14 15  1  0
 14 16  1  0
 16 17  1  0
 17 18  1  0
 18 19  2  0
 19 20  1  0
 20 21  2  0
 21 22  1  0
 22 23  2  0
 23 24  1  0
 24 25  2  0
 25 26  1  0
 26 27  2  0
 27 18  1  0
 27 22  1  0
 16 28  2  0
 28 10  1  0
  5 29  1  0
 29 30  2  0
 30  2  1  0
M  END
> <Smiles>
Cc1ccc(C(=O)CSc2nc(O)c(C)c(Cc3cccc4ccccc34)n2)cc1

> <IC50_uM>
0.67

> <pIC50>
6.173925197

> <Activity>
1

$$$$

  SciTegic10102310092D

 33 36  0  0  0  0            999 V2000
    3.8983   -0.7459    0.0000 C   0  0
    2.6003   -1.4977    0.0000 O   0  0
    1.2990   -0.7500    0.0000 C   0  0
    1.2990    0.7500    0.0000 C   0  0
    0.0000    1.5000    0.0000 C   0  0
    0.0031    3.0008    0.0000 O   0  0
    1.3039    3.7494    0.0000 C   0  0
    2.6004    2.9949    0.0000 C   0  0
    3.9020    3.7405    0.0000 C   0  0
    3.9072    5.2405    0.0000 C   0  0
    2.6108    5.9949    0.0000 C   0  0
    1.3092    5.2494    0.0000 C   0  0
    0.0136    6.0070    0.0000 O   0  0
    0.0209    7.5078    0.0000 C   0  0
   -1.2746    8.2654    0.0000 C   0  0
   -1.2673    9.7662    0.0000 N   0  0
    0.0370   10.5073    0.0000 C   0  0
    0.0474   12.0073    0.0000 C   0  0
   -1.2464   12.7663    0.0000 C   0  0
   -1.2360   14.2662    0.0000 O   0  0
   -2.5506   12.0253    0.0000 N   0  0
   -2.5610   10.5253    0.0000 C   0  0
   -3.8653    9.7844    0.0000 O   0  0
   -1.2990    0.7500    0.0000 C   0  0
   -2.5981    1.5000    0.0000 C   0  0
   -1.2990   -0.7500    0.0000 C   0  0
   -2.5981   -1.5000    0.0000 C   0  0
   -2.5981   -3.0000    0.0000 C   0  0
   -3.8978   -3.7504    0.0000 C   0  0
   -5.1968   -4.5004    0.0000 N   0  0
   -1.2990   -3.7500    0.0000 C   0  0
    0.0000   -3.0000    0.0000 C   0  0
    0.0000   -1.5000    0.0000 C   0  0
  1  2  1  0
  2  3  1  0
  3  4  2  0
  4  5  1  0
  5  6  1  0
  6  7  1  0
  7  8  2  0
  8  9  1  0
  9 10  2  0
 10 11  1  0
 11 12  2  0
 12  7  1  0
 12 13  1  0
 13 14  1  0
 14 15  1  0
 15 16  1  0
 16 17  1  0
 17 18  2  0
 18 19  1  0
 19 20  2  0
 19 21  1  0
 21 22  1  0
 22 16  1  0
 22 23  2  0
  5 24  2  0
 24 25  1  0
 24 26  1  0
 26 27  2  0
 27 28  1  0
 28 29  1  0
 29 30  3  0
 28 31  2  0
 31 32  1  0
 32 33  2  0
 33  3  1  0
 33 26  1  0
M  END
> <Smiles>
COc1cc(Oc2ccccc2OCCn2ccc(=O)[nH]c2=O)c(C)c2cc(C#N)ccc12

> <IC50_uM>
0.67

> <pIC50>
6.173925197

> <Activity>
1

$$$$

  SciTegic10102310092D

 26 28  0  0  0  0            999 V2000
    2.5951   -3.0031    0.0000 C   0  0
    2.5973   -1.5031    0.0000 O   0  0
    1.2990   -0.7500    0.0000 C   0  0
    1.2990    0.7500    0.0000 C   0  0
    0.0000    1.5000    0.0000 C   0  0
   -1.2990    0.7500    0.0000 C   0  0
   -2.6003    1.4977    0.0000 S   0  0
   -3.8990    0.7455    0.0000 C   0  0
   -5.2007    1.4909    0.0000 N   0  0
   -6.4972    0.7364    0.0000 C   0  0
   -7.7988    1.4819    0.0000 O   0  0
   -6.4920   -0.7636    0.0000 C   0  0
   -7.7884   -1.5181    0.0000 C   0  0
   -5.1903   -1.5091    0.0000 C   0  0
   -5.1821   -3.0099    0.0000 C   0  0
   -3.8787   -3.7540    0.0000 C   0  0
   -3.8682   -5.2539    0.0000 C   0  0
   -5.1620   -6.0130    0.0000 F   0  0
   -2.5640   -5.9949    0.0000 C   0  0
   -1.2702   -5.2360    0.0000 C   0  0
   -1.2805   -3.7360    0.0000 C   0  0
   -2.5847   -2.9950    0.0000 C   0  0
   -2.5951   -1.4950    0.0000 F   0  0
   -3.8939   -0.7546    0.0000 N   0  0
   -1.2990   -0.7500    0.0000 C   0  0
    0.0000   -1.5000    0.0000 C   0  0
  1  2  1  0
  2  3  1  0
  3  4  2  0
  4  5  1  0
  5  6  2  0
  6  7  1  0
  7  8  1  0
  8  9  2  0
  9 10  1  0
 10 11  1  0
 10 12  2  0
 12 13  1  0
 12 14  1  0
 14 15  1  0
 15 16  1  0
 16 17  2  0
 17 18  1  0
 17 19  1  0
 19 20  2  0
 20 21  1  0
 21 22  2  0
 22 16  1  0
 22 23  1  0
 14 24  2  0
 24  8  1  0
  6 25  1  0
 25 26  2  0
 26  3  1  0
M  END
> <Smiles>
COc1ccc(Sc2nc(O)c(C)c(Cc3c(F)cccc3F)n2)cc1

> <IC50_uM>
0.67

> <pIC50>
6.173925197

> <Activity>
1

$$$$

  SciTegic10102310092D

 10 11  0  0  0  0            999 V2000
    2.5981   -1.5000    0.0000 N   0  0
    1.2990   -0.7500    0.0000 C   0  0
    1.2990    0.7500    0.0000 C   0  0
    0.0000    1.5000    0.0000 C   0  0
   -1.2990    0.7500    0.0000 C   0  0
   -1.2990   -0.7500    0.0000 C   0  0
   -2.4133   -1.7530    0.0000 C   0  0
   -1.8032   -3.1233    0.0000 N   0  0
   -0.3114   -2.9665    0.0000 N   0  0
    0.0000   -1.5000    0.0000 C   0  0
  1  2  1  0
  2  3  2  0
  3  4  1  0
  4  5  2  0
  5  6  1  0
  6  7  1  0
  7  8  2  0
  8  9  1  0
  6 10  2  0
 10  2  1  0
 10  9  1  0
M  END
> <Smiles>
Nc1cccc(cn[nH]2)c12

> <IC50_uM>
0.676082975

> <pIC50>
6.17

> <Activity>
1

$$$$

  SciTegic10102310092D

  9  8  0  0  0  0            999 V2000
    2.6000    0.0000    0.0000 N   0  0
    1.3000    0.7500    0.0000 C   0  0
    0.0007    0.0004    0.0000 C   0  0
    1.3000    2.2500    0.0000 C   0  0
    3.9000    0.7500    0.0000 C   0  0
    3.9000    2.2500    0.0000 N   0  0
    5.2000    0.0000    0.0000 N   0  0
    6.5000    0.7500    0.0000 C   0  0
    7.7992    1.4996    0.0000 N   0  0
  1  2  1  0
  2  3  1  0
  2  4  1  0
  1  5  1  0
  5  6  2  0
  5  7  1  0
  7  8  1  0
  8  9  3  0
M  END
> <Smiles>
N(C(C)C)C(=N)NC#N

> <IC50_uM>
0.676082975

> <pIC50>
6.17

> <Activity>
1

$$$$

  SciTegic10102310092D

 12 12  0  0  0  0            999 V2000
    2.6003   -1.4977    0.0000 C   0  0
    1.2990   -0.7500    0.0000 N   0  0
    1.2990    0.7500    0.0000 N   0  0
    0.0000    1.5000    0.0000 C   0  0
   -1.2990    0.7500    0.0000 C   0  0
   -1.2990   -0.7500    0.0000 C   0  0
    0.0000   -1.5000    0.0000 C   0  0
    0.0000   -3.0000    0.0000 O   0  0
    0.0000    3.0000    0.0000 O   0  0
    3.8990   -0.7455    0.0000 C   0  0
    5.2003   -1.4932    0.0000 C   0  0
    6.4983   -0.7414    0.0000 C   0  0
  1  2  1  0
  2  3  1  0
  3  4  1  0
  4  5  1  0
  5  6  2  0
  6  7  1  0
  7  2  1  0
  7  8  2  0
  4  9  2  0
  1 10  1  0
 10 11  1  0
 11 12  1  0
M  END
> <Smiles>
C(N1NC(C=CC1=O)=O)CCC

> <IC50_uM>
0.676082975

> <pIC50>
6.17

> <Activity>
1

$$$$

  SciTegic10102310092D

 12 12  0  0  0  0            999 V2000
    2.6003   -1.4977    0.0000 N   0  3
    1.2990   -0.7500    0.0000 C   0  0
    1.2990    0.7500    0.0000 C   0  0
    0.0000    1.5000    0.0000 C   0  0
   -1.2990    0.7500    0.0000 C   0  0
   -2.5981    1.5000    0.0000 C   0  0
   -1.2990   -0.7500    0.0000 N   0  0
    0.0000   -1.5000    0.0000 C   0  0
    0.0000   -3.0000    0.0000 O   0  0
    0.0000    3.0000    0.0000 C   0  0
    2.6030   -2.9977    0.0000 O   0  5
    3.8983   -0.7459    0.0000 O   0  0
  1  2  1  0
  2  3  2  0
  3  4  1  0
  4  5  2  0
  5  6  1  0
  5  7  1  0
  7  8  2  0
  8  2  1  0
  8  9  1  0
  4 10  1  0
  1 11  1  0
  1 12  2  0
M  CHG  2   1   1  11  -1
M  END
> <Smiles>
[N+](c1cc(c(C)nc1O)C)([O-])=O

> <IC50_uM>
0.676082975

> <pIC50>
6.17

> <Activity>
1

$$$$

  SciTegic10102310092D

 12 11  0  0  0  0            999 V2000
    6.5000    0.7500    0.0000 C   0  0
    6.5000    2.2500    0.0000 C   0  0
    5.2000    0.0000    0.0000 C   0  0
    3.9000    0.7500    0.0000 C   0  0
    2.6000    0.0000    0.0000 C   0  0
    2.6000   -1.5000    0.0000 C   0  0
    1.3000    0.7500    0.0000 C   0  0
    1.3000    2.2500    0.0000 O   0  0
    0.0007    0.0004    0.0000 O   0  0
    7.7999    0.0000    0.0000 C   0  0
    7.7999   -1.5000    0.0000 O   0  0
    9.0992    0.7496    0.0000 O   0  0
  1  2  1  0
  1  3  2  0
  3  4  1  0
  4  5  2  0
  5  6  1  0
  5  7  1  0
  7  8  1  0
  7  9  2  0
  1 10  1  0
 10 11  1  0
 10 12  2  0
M  END
> <Smiles>
C(/C)(=C/C=C(\C)/C(O)=O)\C(O)=O

> <IC50_uM>
0.676082975

> <pIC50>
6.17

> <Activity>
1

$$$$

  SciTegic10102310092D

 13 15  0  0  0  0            999 V2000
    1.2990   -0.7500    0.0000 C   0  0
    1.2990    0.7500    0.0000 N   0  0
    2.7248    1.2135    0.0000 C   0  0
    3.6065    0.0000    0.0000 N   0  0
    2.7248   -1.2135    0.0000 N   0  0
    0.0000    1.5000    0.0000 N   0  0
   -1.2990    0.7500    0.0000 C   0  0
   -1.2990   -0.7500    0.0000 C   0  0
   -2.5981   -1.5000    0.0000 C   0  0
   -2.5981   -3.0000    0.0000 C   0  0
   -1.2990   -3.7500    0.0000 C   0  0
    0.0000   -3.0000    0.0000 C   0  0
    0.0000   -1.5000    0.0000 C   0  0
  1  2  1  0
  2  3  1  0
  3  4  2  0
  4  5  1  0
  5  1  2  0
  2  6  1  0
  6  7  2  0
  7  8  1  0
  8  9  2  0
  9 10  1  0
 10 11  2  0
 11 12  1  0
  8 13  1  0
 13  1  1  0
 13 12  2  0
M  END
> <Smiles>
c12n(cnn1)ncc(cccc3)c23

> <IC50_uM>
0.676082975

> <pIC50>
6.17

> <Activity>
1

$$$$

  SciTegic10102310092D

 12 13  0  0  0  0            999 V2000
    0.2757    3.2660    0.0000 C   0  0
    0.2731    1.7660    0.0000 N   0  0
    0.6372   -0.5826    0.0000 C   0  0  3  0  0  0
    2.2576   -0.7100    0.0000 C   0  0
    2.7856    0.0546    0.0000 C   0  0
    1.3108    0.6372    0.0000 C   0  0
   -0.5098   -1.1288    0.0000 C   0  0
   -2.2940   -0.8375    0.0000 N   0  0
   -2.8766    0.0000    0.0000 C   0  0
   -4.3186    0.4132    0.0000 O   0  0
   -1.6021    0.5462    0.0000 C   0  0
    0.0364    0.2731    0.0000 C   0  0  3  0  0  0
  1  2  1  0
  2  3  1  0
  3  4  1  4
  4  5  1  0
  5  6  1  0
  3  7  1  0
  7  8  1  0
  8  9  1  0
  9 10  2  0
  9 11  1  0
  2 12  1  0
 12  6  1  4
 12 11  1  0
M  END
> <Smiles>
CN(C(CCC1)CNC(=O)C2)C12

> <IC50_uM>
0.676082975

> <pIC50>
6.17

> <Activity>
1

$$$$

  SciTegic10102310092D

 12 13  0  0  0  0            999 V2000
    1.2636   -2.2496    0.0000 C   0  0
    1.2990   -0.7500    0.0000 C   0  0
    1.2990    0.7500    0.0000 C   0  0
    0.0000    1.5000    0.0000 C   0  0
   -1.2990    0.7500    0.0000 C   0  0
   -1.2990   -0.7500    0.0000 C   0  0  3  0  0  0
    0.0000   -1.5000    0.0000 C   0  0
   -0.3114   -2.9665    0.0000 N   0  0
   -1.8032   -3.1233    0.0000 O   0  0
   -2.4133   -1.7530    0.0000 C   0  0  3  0  0  0
   -3.8805   -1.4410    0.0000 O   0  0
    2.5801    0.0303    0.0000 C   0  0
  1  2  1  0
  2  3  1  0
  3  4  1  0
  4  5  1  0
  6  5  1  4
  6  7  1  0
  7  2  1  0
  7  8  2  0
  8  9  1  0
  9 10  1  0
 10  6  1  0
 10 11  1  4
  2 12  1  0
M  END
> <Smiles>
CC1(CCCC2C1=NOC2O)C

> <IC50_uM>
0.676082975

> <pIC50>
6.17

> <Activity>
1

$$$$

  SciTegic10102310092D

 12 13  0  0  0  0            999 V2000
    2.5981   -1.5000    0.0000 C   0  0
    1.2990   -0.7500    0.0000 C   0  0  3  0  0  0
    1.2990    0.7500    0.0000 O   0  0
    0.0000    1.5000    0.0000 C   0  0
   -1.2990    0.7500    0.0000 N   0  0
   -1.2990   -0.7500    0.0000 C   0  0
   -2.4133   -1.7530    0.0000 C   0  0
   -1.8032   -3.1233    0.0000 N   0  0
   -0.3114   -2.9665    0.0000 N   0  0
   -3.8805   -1.4410    0.0000 C   0  0
    0.0000   -1.5000    0.0000 C   0  0
    0.0000    3.0000    0.0000 O   0  0
  2  1  1  4
  2  3  1  0
  3  4  1  0
  4  5  1  0
  5  6  1  0
  6  7  1  0
  7  8  2  0
  8  9  1  0
  7 10  1  0
  6 11  2  0
 11  2  1  0
 11  9  1  0
  4 12  2  0
M  END
> <Smiles>
CC1OC(Nc(c(n[nH]2)C)c12)=O

> <IC50_uM>
0.676082975

> <pIC50>
6.17

> <Activity>
1

$$$$

  SciTegic10102310092D

 12 12  0  0  0  0            999 V2000
    1.6281   -2.2462    0.0000 C   0  0
    0.7500   -1.0323    0.0000 C   0  0
    1.2135    0.3943    0.0000 C   0  0
    0.0000    1.2760    0.0000 O   0  0
   -1.2135    0.3943    0.0000 C   0  0
   -0.7500   -1.0323    0.0000 C   0  0
    3.1202   -2.0921    0.0000 O   0  0
    1.0157   -3.6164    0.0000 C   0  0
    1.8954   -4.8324    0.0000 C   0  0
    1.2830   -6.2026    0.0000 C   0  0  3  0  0  0
    2.1621   -7.4180    0.0000 O   0  0
   -0.2091   -6.3568    0.0000 C   0  0
  1  2  1  0
  2  3  2  0
  3  4  1  0
  4  5  1  0
  5  6  2  0
  6  2  1  0
  1  7  2  0
  1  8  1  0
  8  9  1  0
  9 10  1  0
 10 11  1  4
 10 12  1  0
M  END
> <Smiles>
C(c1cocc1)(=O)CCC(O)C

> <IC50_uM>
0.676082975

> <pIC50>
6.17

> <Activity>
1

$$$$

  SciTegic10102310092D

 26 27  0  0  0  0            999 V2000
    1.2990   -0.7500    0.0000 C   0  0
    2.5981   -1.5000    0.0000 Br  0  0
    1.2990    0.7500    0.0000 C   0  0
    0.0000    1.5000    0.0000 C   0  0
   -0.0031    3.0008    0.0000 C   0  0
   -1.3039    3.7494    0.0000 C   0  0
   -1.3092    5.2494    0.0000 C   0  0
   -2.6108    5.9949    0.0000 C   0  0
   -2.6160    7.4949    0.0000 Br  0  0
   -3.9073    5.2404    0.0000 C   0  0
   -5.2112    5.9836    0.0000 O   0  0
   -6.5065    5.2273    0.0000 C   0  0
   -3.9021    3.7404    0.0000 C   0  0
   -5.1977    2.9828    0.0000 C   0  0
   -6.5006    3.7261    0.0000 O   0  0
   -5.1903    1.4829    0.0000 O   0  0
   -2.6005    2.9949    0.0000 C   0  0
    1.2946    3.7531    0.0000 O   0  0
   -1.2990    0.7500    0.0000 C   0  0
   -1.2990   -0.7500    0.0000 C   0  0
   -2.6003   -1.4978    0.0000 C   0  0
   -2.6029   -2.9978    0.0000 O   0  0
   -3.8983   -0.7459    0.0000 O   0  0
    0.0000   -1.5000    0.0000 C   0  0
    0.0031   -3.0008    0.0000 O   0  0
    1.3032   -3.7490    0.0000 C   0  0
  1  2  1  0
  1  3  2  0
  3  4  1  0
  4  5  1  0
  5  6  1  0
  6  7  2  0
  7  8  1  0
  8  9  1  0
  8 10  2  0
 10 11  1  0
 11 12  1  0
 10 13  1  0
 13 14  1  0
 14 15  1  0
 14 16  2  0
 13 17  2  0
 17  6  1  0
  5 18  2  0
  4 19  2  0
 19 20  1  0
 20 21  1  0
 21 22  1  0
 21 23  2  0
 20 24  2  0
 24  1  1  0
 24 25  1  0
 25 26  1  0
M  END
> <Smiles>
c1(Br)cc(C(c2cc(Br)c(OC)c(C(O)=O)c2)=O)cc(C(O)=O)c1OC

> <IC50_uM>
0.676082975

> <pIC50>
6.17

> <Activity>
1

$$$$

  SciTegic10102310092D

 12 14  0  0  0  0            999 V2000
    1.2990   -0.7500    0.0000 C   0  0
    1.2990    0.7500    0.0000 C   0  0  3  0  0  0
    2.4133    1.7530    0.0000 C   0  0  3  0  0  0
    1.8032    3.1233    0.0000 C   0  0  3  0  0  0
    0.3114    2.9665    0.0000 C   0  0
    2.9160    4.1261    0.0000 C   0  0
    4.2150    3.3762    0.0000 O   0  0
    3.9032    1.9089    0.0000 N   0  0
    0.0000    1.5000    0.0000 N   0  0  3  0  0  0
   -1.2990    0.7500    0.0000 C   0  0
   -1.2990   -0.7500    0.0000 C   0  0
    0.0000   -1.5000    0.0000 C   0  0
  2  1  1  4
  2  3  1  0
  3  4  1  0
  4  5  1  4
  4  6  1  0
  6  7  1  0
  7  8  1  0
  3  8  1  4
  2  9  1  0
  9  5  1  4
  9 10  1  0
 10 11  1  0
 11 12  1  0
 12  1  1  0
M  END
> <Smiles>
C1C(C2C(C3)CON2)N3CCC1

> <IC50_uM>
0.676082975

> <pIC50>
6.17

> <Activity>
1

$$$$

  SciTegic10102310092D

 12 12  0  0  0  0            999 V2000
    1.2990   -0.7500    0.0000 C   0  0
    2.5981   -1.5000    0.0000 O   0  0
    1.2990    0.7500    0.0000 N   0  0
    2.5972    1.5031    0.0000 C   0  0
    2.5951    3.0039    0.0000 C   0  0
    3.8933    3.7570    0.0000 C   0  0
    3.8912    5.2570    0.0000 O   0  0
    0.0000    1.5000    0.0000 N   0  0
   -1.2990    0.7500    0.0000 C   0  0
   -2.5981    1.5000    0.0000 O   0  0
   -1.2990   -0.7500    0.0000 C   0  0
    0.0000   -1.5000    0.0000 C   0  0
  1  2  2  0
  1  3  1  0
  3  4  1  0
  4  5  1  0
  5  6  1  0
  6  7  2  0
  3  8  1  0
  8  9  1  0
  9 10  2  0
  9 11  1  0
 11 12  2  0
 12  1  1  0
M  END
> <Smiles>
C1(=O)N(CCC=O)NC(=O)C=C1

> <IC50_uM>
0.676082975

> <pIC50>
6.17

> <Activity>
1

$$$$

  SciTegic10102310092D

 33 34  0  0  0  0            999 V2000
    1.2990   -0.7500    0.0000 C   0  0
    2.6003   -1.4977    0.0000 C   0  0
    2.6030   -2.9977    0.0000 O   0  0
    3.8983   -0.7459    0.0000 O   0  0
    1.2990    0.7500    0.0000 C   0  0
    0.0000    1.5000    0.0000 C   0  0
   -0.0044    3.0009    0.0000 C   0  0
    1.2928    3.7558    0.0000 C   0  0
    2.5946    3.0102    0.0000 C   0  0
    3.8911    3.7646    0.0000 C   0  0
    5.1919    3.0160    0.0000 C   0  0
    6.4897    3.7681    0.0000 O   0  0
    5.1949    1.5160    0.0000 O   0  0
    3.8860    5.2646    0.0000 C   0  0
    5.1825    6.0191    0.0000 O   0  0
    2.5844    6.0102    0.0000 C   0  0
    2.5793    7.5102    0.0000 Cl  0  0
    1.2879    5.2558    0.0000 C   0  0
   -1.3050    3.7498    0.0000 C   0  0
   -1.3076    5.2506    0.0000 C   0  0
   -2.6082    5.9995    0.0000 C   0  0
   -2.6109    7.5004    0.0000 C   0  0
   -3.9115    8.2493    0.0000 C   0  0
   -3.9142    9.7501    0.0000 C   0  0
   -5.2148   10.4990    0.0000 C   0  0
   -5.2174   11.9999    0.0000 C   0  0
   -6.5180   12.7488    0.0000 C   0  0
   -6.5207   14.2488    0.0000 C   0  0
   -1.2990    0.7500    0.0000 C   0  0
   -1.2990   -0.7500    0.0000 C   0  0
   -2.5981   -1.5000    0.0000 Cl  0  0
    0.0000   -1.5000    0.0000 C   0  0
    0.0000   -3.0000    0.0000 O   0  0
  1  2  1  0
  2  3  1  0
  2  4  2  0
  1  5  2  0
  5  6  1  0
  6  7  1  0
  7  8  1  0
  8  9  2  0
  9 10  1  0
 10 11  1  0
 11 12  1  0
 11 13  2  0
 10 14  2  0
 14 15  1  0
 14 16  1  0
 16 17  1  0
 16 18  2  0
 18  8  1  0
  7 19  1  0
 19 20  1  0
 20 21  1  0
 21 22  1  0
 22 23  1  0
 23 24  1  0
 24 25  1  0
 25 26  1  0
 26 27  1  0
 27 28  1  0
  6 29  2  0
 29 30  1  0
 30 31  1  0
 30 32  2  0
 32  1  1  0
 32 33  1  0
M  END
> <Smiles>
c1(C(O)=O)cc(C(c2cc(C(O)=O)c(O)c(Cl)c2)CCCCCCCCCC)cc(Cl)c1O

> <IC50_uM>
0.676082975

> <pIC50>
6.17

> <Activity>
1

$$$$

  SciTegic10102310092D

 12 13  0  0  0  0            999 V2000
    1.2990   -0.7500    0.0000 C   0  0  3  0  0  0
    2.5981   -1.5000    0.0000 C   0  0
    1.2990    0.7500    0.0000 C   0  0
    0.0000    1.5000    0.0000 C   0  0
   -1.2990    0.7500    0.0000 C   0  0
   -1.2990   -0.7500    0.0000 C   0  0  3  0  0  0
   -2.4133   -1.7530    0.0000 C   0  0
   -1.8032   -3.1233    0.0000 C   0  0
   -0.3114   -2.9665    0.0000 C   0  0  3  0  0  0
    0.6890   -4.0818    0.0000 C   0  0
    0.2237   -5.5078    0.0000 C   0  0
    0.0000   -1.5000    0.0000 N   0  0  3  0  0  0
  1  2  1  4
  1  3  1  0
  3  4  1  0
  4  5  1  0
  6  5  1  4
  6  7  1  0
  7  8  1  0
  8  9  1  0
  9 10  1  4
 10 11  1  0
 12  6  1  4
 12  1  1  0
 12  9  1  0
M  END
> <Smiles>
C1(C)CCCC(CCC2CC)N12

> <IC50_uM>
0.676082975

> <pIC50>
6.17

> <Activity>
1

$$$$

  SciTegic10102310092D

 12 12  0  0  0  0            999 V2000
    1.2990   -0.7500    0.0000 C   0  0
    1.2990    0.7500    0.0000 C   0  0
    2.6003    1.4978    0.0000 C   0  0
    3.8990    0.7455    0.0000 O   0  0
    5.1996    1.4928    0.0000 C   0  0
    2.6060    2.9986    0.0000 O   0  0
    3.9074    3.7445    0.0000 C   0  0
    0.0000    1.5000    0.0000 C   0  0
    0.0000    3.0000    0.0000 C   0  0
   -1.2990    0.7500    0.0000 N   0  0
   -1.2990   -0.7500    0.0000 C   0  0
    0.0000   -1.5000    0.0000 C   0  0
  1  2  2  0
  2  3  1  0
  3  4  1  0
  4  5  1  0
  3  6  1  0
  6  7  1  0
  2  8  1  0
  8  9  1  0
  8 10  2  0
 10 11  1  0
 11 12  2  0
 12  1  1  0
M  END
> <Smiles>
c1c(C(OC)OC)c(C)ncc1

> <IC50_uM>
0.676082975

> <pIC50>
6.17

> <Activity>
1

$$$$

  SciTegic10102310092D

 15 16  0  0  0  0            999 V2000
    1.2990   -0.7500    0.0000 C   0  0
    2.5981   -1.5000    0.0000 C   0  0
    1.2990    0.7500    0.0000 C   0  0
    0.0000    1.5000    0.0000 C   0  0
   -1.2990    0.7500    0.0000 C   0  0
   -1.2990   -0.7500    0.0000 C   0  0
    0.0000   -1.5000    0.0000 N   0  0
   -2.5981   -1.5000    0.0000 N   0  0
   -3.8971   -0.7500    0.0000 S   0  0
   -3.8971    0.7500    0.0000 N   0  0
   -2.5981    1.5000    0.0000 C   0  0
   -2.5981    3.0000    0.0000 O   0  0
   -3.8617   -2.2496    0.0000 O   0  0
   -5.1782    0.0303    0.0000 O   0  0
    0.0000    3.0000    0.0000 O   0  0
  1  2  1  0
  1  3  2  0
  3  4  1  0
  4  5  1  0
  5  6  2  0
  6  7  1  0
  7  1  1  0
  6  8  1  0
  8  9  2  0
  9 10  1  0
 10 11  2  0
 11  5  1  0
 11 12  1  0
  9 13  1  0
  9 14  2  0
  4 15  2  0
M  END
> <Smiles>
C1(C)=CC(c2c(N1)ns(nc2O)(O)=O)=O

> <IC50_uM>
0.676082975

> <pIC50>
6.17

> <Activity>
1

$$$$

  SciTegic10102310092D

 12 12  0  0  0  0            999 V2000
    2.5981   -1.5000    0.0000 O   0  0
    1.2990   -0.7500    0.0000 C   0  0
    1.2990    0.7500    0.0000 C   0  0  3  0  0  0
    2.5972    1.5031    0.0000 C   0  0
    2.5951    3.0039    0.0000 C   0  0
    3.8933    3.7570    0.0000 C   0  0
    3.8912    5.2578    0.0000 C   0  0
    5.1886    6.0105    0.0000 C   0  0
    0.0000    1.5000    0.0000 C   0  0
   -1.2990    0.7500    0.0000 C   0  0
   -1.2990   -0.7500    0.0000 C   0  0
    0.0000   -1.5000    0.0000 N   0  0
  1  2  2  0
  2  3  1  0
  3  4  1  4
  4  5  1  0
  5  6  1  0
  6  7  1  0
  7  8  2  0
  3  9  1  0
  9 10  1  0
 10 11  1  0
 11 12  1  0
 12  2  1  0
M  END
> <Smiles>
O=C1C(CCCC=C)CCCN1

> <IC50_uM>
0.676082975

> <pIC50>
6.17

> <Activity>
1

$$$$

  SciTegic10102310092D

 12 13  0  0  0  0            999 V2000
   -4.5628   -2.3141    0.0000 C   0  0  3  0  0  0
   -5.7497   -3.2312    0.0000 C   0  0
   -3.8642   -1.1134    0.0000 C   0  0
   -3.4391   -0.2082    0.0000 C   0  0
   -5.3465   -1.3426    0.0000 C   0  0
   -2.4451   -0.7641    0.0000 C   0  0  3  0  0  0
   -3.2310    0.3930    0.0000 C   0  0
   -3.2310   -1.9430    0.0000 C   0  0  3  0  0  0
   -1.8993   -2.3141    0.0000 C   0  0
   -1.3219   -3.6973    0.0000 N   0  0
    0.1657   -3.8898    0.0000 O   0  0
   -1.2226   -1.1134    0.0000 C   0  0
  1  2  1  4
  1  3  1  0
  3  4  1  0
  3  5  1  0
  3  6  1  0
  6  7  1  4
  8  7  1  4
  8  1  1  0
  8  9  1  0
  9 10  2  0
 10 11  1  0
  9 12  1  0
 12  6  1  0
M  END
> <Smiles>
C1(C)C(C)(C)C2CC1\C(=N\O)\C2

> <IC50_uM>
0.676082975

> <pIC50>
6.17

> <Activity>
1

$$$$

  SciTegic10102310092D

 12 13  0  0  0  0            999 V2000
   -0.6568   -0.6386    0.0000 C   0  0  3  0  0  0
    0.4421   -1.6596    0.0000 C   0  0
   -1.8063   -1.3319    0.0000 C   0  0
   -3.2471   -0.9146    0.0000 C   0  0
   -1.5136   -2.8031    0.0000 C   0  0
   -0.8393    0.0000    0.0000 C   0  0  3  0  0  0
   -1.0947    1.4779    0.0000 C   0  0
    0.0000    0.6568    0.0000 C   0  0  3  0  0  0
    0.9488    0.0000    0.0000 C   0  0
    1.8975   -0.8028    0.0000 C   0  0
    2.6413   -2.1054    0.0000 O   0  0
    1.6421    0.6933    0.0000 N   0  0
  1  2  1  4
  1  3  1  0
  3  4  1  0
  3  5  1  0
  3  6  1  0
  6  7  1  4
  8  7  1  4
  8  1  1  0
  6  9  1  0
  9 10  1  0
 10 11  2  0
 10 12  1  0
 12  8  1  0
M  END
> <Smiles>
C1(C)C(C)(C)C(CC12)CC(=O)N2

> <IC50_uM>
0.676082975

> <pIC50>
6.17

> <Activity>
1

$$$$

  SciTegic10102310092D

 12 13  0  0  0  0            999 V2000
   -4.5628   -2.3141    0.0000 C   0  0
   -3.8642   -1.1134    0.0000 C   0  0
   -3.4391   -0.2082    0.0000 C   0  0
   -5.3465   -1.3426    0.0000 C   0  0
   -2.4451   -0.7641    0.0000 C   0  0  3  0  0  0
   -3.2310    0.3930    0.0000 C   0  0
   -3.2310   -1.9430    0.0000 C   0  0  3  0  0  0
   -3.2310   -3.4430    0.0000 C   0  0
   -1.8993   -2.3141    0.0000 C   0  0
   -1.3219   -3.6973    0.0000 N   0  0
    0.1657   -3.8898    0.0000 O   0  0
   -1.2226   -1.1134    0.0000 C   0  0
  1  2  1  0
  2  3  1  0
  2  4  1  0
  2  5  1  0
  5  6  1  4
  6  7  1  0
  7  1  1  0
  7  8  1  4
  7  9  1  0
  9 10  2  0
 10 11  1  0
  9 12  1  0
 12  5  1  0
M  END
> <Smiles>
C1C(C)(C)C2CC1(C)\C(=N\O)\C2

> <IC50_uM>
0.676082975

> <pIC50>
6.17

> <Activity>
1

$$$$

  SciTegic10102310092D

 12 13  0  0  0  0            999 V2000
    1.6856   -0.3848    0.0000 C   0  0
    1.6856   -2.1986    0.0000 C   0  0
    2.4533   -3.4872    0.0000 O   0  0
    0.8062   -0.7695    0.0000 N   0  0
   -1.0993   -0.4764    0.0000 C   0  0  3  0  0  0
   -2.7849   -0.9710    0.0000 C   0  0
   -0.6229    0.5496    0.0000 C   0  0  3  0  0  0
    0.7695    0.5496    0.0000 C   0  0  3  0  0  0
    0.7695    2.0496    0.0000 C   0  0
   -1.0993    1.2092    0.0000 C   0  0
    0.1768    1.9976    0.0000 C   0  0
   -2.4150    1.9296    0.0000 C   0  0
  1  2  1  0
  2  3  2  0
  2  4  1  0
  5  4  1  4
  5  6  1  0
  7  6  1  4
  7  8  1  0
  8  1  1  0
  8  9  1  4
  5 10  1  0
 10  7  1  0
 10 11  1  0
 10 12  1  0
M  END
> <Smiles>
C1C(=O)NC(CC2C1C)C2(C)C

> <IC50_uM>
0.676082975

> <pIC50>
6.17

> <Activity>
1

$$$$

  SciTegic10102310092D

 34 37  0  0  0  0            999 V2000
    5.1996   -1.4928    0.0000 C   0  0
    3.8990   -0.7455    0.0000 O   0  0
    2.6003   -1.4977    0.0000 C   0  0
    1.2990   -0.7500    0.0000 C   0  0
    1.2990    0.7500    0.0000 C   0  0
    0.0000    1.5000    0.0000 C   0  0
    0.0031    3.0008    0.0000 O   0  0
    1.3039    3.7494    0.0000 C   0  0
    2.6004    2.9949    0.0000 C   0  0
    3.9020    3.7405    0.0000 C   0  0
    3.9072    5.2405    0.0000 C   0  0
    2.6108    5.9949    0.0000 C   0  0
    1.3092    5.2494    0.0000 C   0  0
    0.0136    6.0070    0.0000 O   0  0
    0.0209    7.5078    0.0000 C   0  0
   -1.2746    8.2654    0.0000 C   0  0
   -1.2673    9.7662    0.0000 N   0  0
    0.0370   10.5073    0.0000 C   0  0
    0.0474   12.0073    0.0000 C   0  0
   -1.2464   12.7663    0.0000 C   0  0
   -1.2360   14.2662    0.0000 O   0  0
   -2.5506   12.0253    0.0000 N   0  0
   -2.5610   10.5253    0.0000 C   0  0
   -3.8653    9.7844    0.0000 O   0  0
   -1.2990    0.7500    0.0000 C   0  0
   -2.5981    1.5000    0.0000 C   0  0
   -1.2990   -0.7500    0.0000 C   0  0
   -2.5981   -1.5000    0.0000 C   0  0
   -2.5981   -3.0000    0.0000 C   0  0
   -3.8978   -3.7504    0.0000 C   0  0
   -5.1968   -4.5004    0.0000 N   0  0
   -1.2990   -3.7500    0.0000 C   0  0
    0.0000   -3.0000    0.0000 C   0  0
    0.0000   -1.5000    0.0000 C   0  0
  1  2  1  0
  2  3  1  0
  3  4  1  0
  4  5  2  0
  5  6  1  0
  6  7  1  0
  7  8  1  0
  8  9  2  0
  9 10  1  0
 10 11  2  0
 11 12  1  0
 12 13  2  0
 13  8  1  0
 13 14  1  0
 14 15  1  0
 15 16  1  0
 16 17  1  0
 17 18  1  0
 18 19  2  0
 19 20  1  0
 20 21  2  0
 20 22  1  0
 22 23  1  0
 23 17  1  0
 23 24  2  0
  6 25  2  0
 25 26  1  0
 25 27  1  0
 27 28  2  0
 28 29  1  0
 29 30  1  0
 30 31  3  0
 29 32  2  0
 32 33  1  0
 33 34  2  0
 34  4  1  0
 34 27  1  0
M  END
> <Smiles>
COCc1cc(Oc2ccccc2OCCn2ccc(=O)[nH]c2=O)c(C)c2cc(C#N)ccc12

> <IC50_uM>
0.69

> <pIC50>
6.161150909

> <Activity>
1

$$$$

  SciTegic10102310092D

 38 42  0  0  0  0            999 V2000
    2.5923    1.5001    0.0000 C   0  0
    3.8939    0.7546    0.0000 C   0  0
    5.1903    1.5091    0.0000 C   0  0
    6.4920    0.7636    0.0000 C   0  0
    7.7891    1.5185    0.0000 C   0  0
    9.0856    2.2729    0.0000 N   0  0
    6.4972   -0.7364    0.0000 C   0  0
    5.2007   -1.4909    0.0000 C   0  0
    5.2059   -2.9909    0.0000 C   0  0
    3.8990   -0.7455    0.0000 C   0  0
    2.6003   -1.4977    0.0000 O   0  0
    1.2990   -0.7500    0.0000 C   0  0
    1.2990    0.7500    0.0000 N   0  0
    0.0000    1.5000    0.0000 C   0  0
   -0.0031    3.0008    0.0000 N   0  0
   -1.3039    3.7494    0.0000 C   0  0  3  0  0  0
   -1.3092    5.2494    0.0000 C   0  0
   -2.6108    5.9949    0.0000 C   0  0
   -3.9073    5.2404    0.0000 C   0  0  3  0  0  0
   -5.2112    5.9836    0.0000 N   0  0
   -6.5072    5.2269    0.0000 C   0  0
   -7.8111    5.9701    0.0000 C   0  0
   -9.1076    5.2156    0.0000 C   0  0
  -10.4092    5.9611    0.0000 C   0  0
  -10.4145    7.4611    0.0000 C   0  0
  -11.7153    8.2097    0.0000 N   0  3
  -11.7184    9.7097    0.0000 O   0  0
  -13.0130    7.4574    0.0000 O   0  5
   -9.1180    8.2156    0.0000 C   0  0
   -7.8164    7.4702    0.0000 C   0  0
   -3.9021    3.7404    0.0000 C   0  0
   -2.6005    2.9949    0.0000 C   0  0
   -1.2990    0.7500    0.0000 N   0  0
   -1.2990   -0.7500    0.0000 C   0  0
   -2.4133   -1.7530    0.0000 C   0  0
   -1.8032   -3.1233    0.0000 C   0  0
   -0.3114   -2.9665    0.0000 S   0  0
    0.0000   -1.5000    0.0000 C   0  0
  1  2  1  0
  2  3  2  0
  3  4  1  0
  4  5  1  0
  5  6  3  0
  4  7  2  0
  7  8  1  0
  8  9  1  0
  8 10  2  0
 10  2  1  0
 10 11  1  0
 11 12  1  0
 12 13  2  0
 13 14  1  0
 14 15  1  0
 16 15  1  4
 16 17  1  0
 17 18  1  0
 18 19  1  0
 19 20  1  4
 20 21  1  0
 21 22  1  0
 22 23  2  0
 23 24  1  0
 24 25  2  0
 25 26  1  0
 26 27  2  0
 26 28  1  0
 25 29  1  0
 29 30  2  0
 30 22  1  0
 19 31  1  0
 31 32  1  0
 32 16  1  0
 14 33  2  0
 33 34  1  0
 34 35  1  0
 35 36  2  0
 36 37  1  0
 37 38  1  0
 38 12  1  0
 38 34  2  0
M  CHG  2  26   1  28  -1
M  END
> <Smiles>
Cc1cc(C#N)cc(C)c1Oc1nc(NC2CCC(NCc3ccc([N+](=O)[O-])cc3)CC2)nc2ccsc12

> <IC50_uM>
0.69

> <pIC50>
6.161150909

> <Activity>
1

$$$$

  SciTegic10102310092D

  8  7  0  0  0  0            999 V2000
    2.6000    0.0000    0.0000 N   0  0
    1.3000    0.7500    0.0000 C   0  0
    0.0007    0.0004    0.0000 C   0  0
    2.5969   -1.5008    0.0000 C   0  0
    1.2968   -2.2490    0.0000 C   0  0
    3.9000    0.7500    0.0000 C   0  0
    3.9000    2.2500    0.0000 S   0  0
    5.1992    0.0004    0.0000 S   0  0
  1  2  1  0
  2  3  1  0
  1  4  1  0
  4  5  1  0
  1  6  1  0
  6  7  1  0
  6  8  2  0
M  END
> <Smiles>
N(CC)(CC)C(S)=S

> <IC50_uM>
0.691830971

> <pIC50>
6.16

> <Activity>
1

$$$$

  SciTegic10102310092D

 12 11  0  0  0  0            999 V2000
    6.5000    0.7500    0.0000 C   0  0  3  0  0  0
    6.5000    2.2500    0.0000 C   0  0
    5.2000    0.0000    0.0000 C   0  0
    3.9000    0.7500    0.0000 C   0  0
    2.6000    0.0000    0.0000 C   0  0  3  0  0  0
    2.6000   -1.5000    0.0000 C   0  0
    1.3000    0.7500    0.0000 C   0  0
    1.3000    2.2500    0.0000 O   0  0
    0.0007    0.0004    0.0000 O   0  0
    7.7999    0.0000    0.0000 C   0  0
    7.7999   -1.5000    0.0000 O   0  0
    9.0992    0.7496    0.0000 O   0  0
  1  2  1  4
  1  3  1  0
  3  4  1  0
  4  5  1  0
  5  6  1  4
  5  7  1  0
  7  8  1  0
  7  9  2  0
  1 10  1  0
 10 11  1  0
 10 12  2  0
M  END
> <Smiles>
C(C)(CCC(C)C(O)=O)C(O)=O

> <IC50_uM>
0.691830971

> <pIC50>
6.16

> <Activity>
1

$$$$

  SciTegic10102310092D

 12 11  0  0  0  0            999 V2000
    7.7999    0.0000    0.0000 C   0  0
    6.5000    0.7500    0.0000 C   0  0
    5.2000    0.0000    0.0000 C   0  0
    3.9000    0.7500    0.0000 C   0  0
    2.6000    0.0000    0.0000 C   0  0
    1.3000    0.7500    0.0000 C   0  0
    1.3000    2.2500    0.0000 O   0  0
    0.0007    0.0004    0.0000 O   0  0
    9.0999    0.7500    0.0000 C   0  0
   10.3999    0.0000    0.0000 C   0  0
   10.3999   -1.5000    0.0000 O   0  0
   11.6992    0.7496    0.0000 O   0  0
  1  2  1  0
  2  3  1  0
  3  4  1  0
  4  5  2  0
  5  6  1  0
  6  7  1  0
  6  8  2  0
  1  9  1  0
  9 10  1  0
 10 11  1  0
 10 12  2  0
M  END
> <Smiles>
C(CC\C=C\C(O)=O)CC(O)=O

> <IC50_uM>
0.691830971

> <pIC50>
6.16

> <Activity>
1

$$$$

  SciTegic10102310092D

 12 11  0  0  0  0            999 V2000
    7.7999    0.0000    0.0000 C   0  0
    6.5000    0.7500    0.0000 C   0  0
    5.2000    0.0000    0.0000 C   0  0
    3.9000    0.7500    0.0000 C   0  0
    2.6000    0.0000    0.0000 C   0  0
    1.3000    0.7500    0.0000 C   0  0
    1.3000    2.2500    0.0000 O   0  0
    0.0007    0.0004    0.0000 O   0  0
    9.0999    0.7500    0.0000 C   0  0
   10.3999    0.0000    0.0000 C   0  0
   10.3999   -1.5000    0.0000 O   0  0
   11.6992    0.7496    0.0000 O   0  0
  1  2  1  0
  2  3  1  0
  3  4  1  0
  4  5  1  0
  5  6  1  0
  6  7  1  0
  6  8  2  0
  1  9  1  0
  9 10  1  0
 10 11  1  0
 10 12  2  0
M  END
> <Smiles>
C(CCCCC(O)=O)CC(O)=O

> <IC50_uM>
0.691830971

> <pIC50>
6.16

> <Activity>
1

$$$$

  SciTegic10102310092D

 10 10  0  0  0  0            999 V2000
    2.5973   -1.5031    0.0000 S   0  0
    1.2990   -0.7500    0.0000 C   0  0
    1.2990    0.7500    0.0000 N   0  0
    0.0000    1.5000    0.0000 C   0  0
   -1.2990    0.7500    0.0000 N   0  0
   -1.2990   -0.7500    0.0000 C   0  0
   -2.5972   -1.5031    0.0000 S   0  0
   -2.5951   -3.0031    0.0000 C   0  0
    0.0000   -1.5000    0.0000 C   0  0
    2.5951   -3.0031    0.0000 C   0  0
  1  2  1  0
  2  3  2  0
  3  4  1  0
  4  5  2  0
  5  6  1  0
  6  7  1  0
  7  8  1  0
  6  9  2  0
  9  2  1  0
  1 10  1  0
M  END
> <Smiles>
S(c1ncnc(SC)c1)C

> <IC50_uM>
0.691830971

> <pIC50>
6.16

> <Activity>
1

$$$$

  SciTegic10102310092D

 12 11  0  0  0  0            999 V2000
    5.2000    0.0000    0.0000 C   0  0
    5.2000   -1.5000    0.0000 C   0  0
    3.9000    0.7500    0.0000 C   0  0
    2.6000    0.0000    0.0000 C   0  0
    1.3000    0.7500    0.0000 C   0  0
    1.3000    2.2500    0.0000 O   0  0
    0.0007    0.0004    0.0000 O   0  0
    6.5000    0.7500    0.0000 C   0  0
    7.7999    0.0000    0.0000 C   0  0
    9.0999    0.7500    0.0000 C   0  0
    9.0999    2.2500    0.0000 O   0  0
   10.3992    0.0004    0.0000 O   0  0
  1  2  1  0
  1  3  1  0
  3  4  1  0
  4  5  1  0
  5  6  1  0
  5  7  2  0
  1  8  1  0
  8  9  1  0
  9 10  1  0
 10 11  1  0
 10 12  2  0
M  END
> <Smiles>
C(C)(CCC(O)=O)CCC(O)=O

> <IC50_uM>
0.691830971

> <pIC50>
6.16

> <Activity>
1

$$$$

  SciTegic10102310092D

 10  9  0  0  0  0            999 V2000
    2.6000    0.0000    0.0000 C   0  0
    1.3000    0.7500    0.0000 C   0  0
    0.0007    0.0004    0.0000 F   0  0
    1.3000    2.2500    0.0000 F   0  0
    0.0011    1.5002    0.0000 F   0  0
    3.9000    0.7500    0.0000 N   0  0
    5.2000    0.0000    0.0000 N   0  0
    6.5000    0.7500    0.0000 C   0  0
    7.7992    0.0004    0.0000 S   0  0
    6.5000    2.2500    0.0000 N   0  0
  1  2  1  0
  2  3  1  0
  2  4  1  0
  2  5  1  0
  1  6  2  0
  6  7  1  0
  7  8  1  0
  8  9  2  0
  8 10  1  0
M  END
> <Smiles>
C(/C(F)(F)F)=N\NC(=S)N

> <IC50_uM>
0.691830971

> <pIC50>
6.16

> <Activity>
1

$$$$

  SciTegic10102310092D

 13 14  0  0  0  0            999 V2000
    2.6003   -1.4977    0.0000 C   0  0
    1.2990   -0.7500    0.0000 C   0  0
    1.2990    0.7500    0.0000 C   0  0
    0.0000    1.5000    0.0000 N   0  0
   -1.2990    0.7500    0.0000 N   0  0
   -1.2990   -0.7500    0.0000 C   0  0
   -2.5981   -1.5000    0.0000 C   0  0
   -2.5981   -3.0000    0.0000 C   0  0
   -1.2990   -3.7500    0.0000 C   0  0
    0.0000   -3.0000    0.0000 C   0  0
    0.0000   -1.5000    0.0000 C   0  0
    2.6030   -2.9977    0.0000 O   0  0
    3.8983   -0.7459    0.0000 O   0  0
  1  2  1  0
  2  3  2  0
  3  4  1  0
  4  5  2  0
  5  6  1  0
  6  7  2  0
  7  8  1  0
  8  9  2  0
  9 10  1  0
  6 11  1  0
 11  2  1  0
 11 10  2  0
  1 12  1  0
  1 13  2  0
M  END
> <Smiles>
C(c1cnnc(cccc2)c12)(O)=O

> <IC50_uM>
0.691830971

> <pIC50>
6.16

> <Activity>
1

$$$$

  SciTegic10102310092D

 11 13  0  0  0  0            999 V2000
    2.3029    1.5499    0.0000 O   0  0
    2.2900    0.0500    0.0000 S   0  0
    1.8400   -0.6900    0.0000 C   0  0
    0.3100   -0.5900    0.0000 C   0  0  3  0  0  0
   -1.3000    0.0000    0.0000 C   0  0  3  0  0  0
   -0.9200    2.1100    0.0000 O   0  0
   -0.7000    0.7700    0.0000 C   0  0  3  0  0  0
   -2.7200   -0.5000    0.0000 C   0  0
   -2.2900    0.1600    0.0000 C   0  0
    0.7100    0.0000    0.0000 C   0  0  3  0  0  0
    3.6021   -0.6769    0.0000 O   0  0
  1  2  2  0
  2  3  1  0
  4  3  1  4
  4  5  1  0
  5  6  1  4
  7  6  1  4
  5  8  1  0
  8  9  2  0
  9  7  1  0
  4 10  1  0
 10  2  1  4
 10  7  1  0
  2 11  2  0
M  END
> <Smiles>
O=S1(CC(C(OC23)C=C2)C13)=O

> <IC50_uM>
0.691830971

> <pIC50>
6.16

> <Activity>
1

$$$$

  SciTegic10102310092D

 11 12  0  0  0  0            999 V2000
   -0.4790    3.2447    0.0000 O   0  0
   -0.4497    1.7450    0.0000 S   0  0  3  0  0  0
   -0.6656    0.3688    0.0000 C   0  0  3  0  0  0
   -1.9429   -0.3058    0.0000 C   0  0
   -2.2487   -1.7270    0.0000 C   0  0
   -1.2593   -1.0074    0.0000 C   0  0
    0.7196   -0.2249    0.0000 C   0  0
    1.9159   -0.1079    0.0000 C   0  0
    3.1471    0.7489    0.0000 O   0  0
    1.2773   -1.5561    0.0000 C   0  0
    0.0899   -0.9624    0.0000 C   0  0  3  0  0  0
  2  1  2  3
  2  3  1  0
  3  4  1  4
  4  5  1  0
  5  6  1  0
  3  7  1  0
  7  8  1  0
  8  9  2  0
  8 10  1  0
  2 11  1  0
 11  6  1  4
 11 10  1  0
M  END
> <Smiles>
O=S(C(CCC1)CC(=O)C2)C12

> <IC50_uM>
0.691830971

> <pIC50>
6.16

> <Activity>
1

$$$$

  SciTegic10102310092D

 12 12  0  0  0  0            999 V2000
    2.6003   -1.4977    0.0000 O   0  0
    1.2990   -0.7500    0.0000 C   0  0  3  0  0  0
    1.2990    0.7500    0.0000 O   0  0
    0.0000    1.5000    0.0000 C   0  0
   -1.2990    0.7500    0.0000 N   0  0
   -2.5981    1.5000    0.0000 C   0  0
   -1.2990   -0.7500    0.0000 C   0  0
    0.0000   -1.5000    0.0000 C   0  0
    1.3164   -2.2191    0.0000 C   0  0
   -1.3163   -2.2193    0.0000 C   0  0
    3.8990   -0.7455    0.0000 C   0  0
    5.1996   -1.4928    0.0000 C   0  0
  2  1  1  4
  2  3  1  0
  3  4  1  0
  4  5  1  0
  5  6  1  0
  5  7  1  0
  7  8  1  0
  8  2  1  0
  8  9  1  0
  8 10  1  0
  1 11  1  0
 11 12  1  0
M  END
> <Smiles>
O(C1OCN(C)CC1(C)C)CC

> <IC50_uM>
0.691830971

> <pIC50>
6.16

> <Activity>
1

$$$$

  SciTegic10102310092D

 13 13  0  0  0  0            999 V2000
    2.5973   -1.5031    0.0000 N   0  0
    1.2990   -0.7500    0.0000 C   0  0
    1.2990    0.7500    0.0000 C   0  0
    0.0000    1.5000    0.0000 C   0  0
   -1.2990    0.7500    0.0000 C   0  0
   -2.5981    1.5000    0.0000 C   0  0
   -1.2990   -0.7500    0.0000 C   0  0
    0.0000   -1.5000    0.0000 C   0  0
    2.5951   -3.0039    0.0000 C   0  0
    1.2948   -3.7516    0.0000 N   0  0
    3.8933   -3.7570    0.0000 N   0  0
    3.8912   -5.2578    0.0000 C   0  0
    3.8891   -6.7578    0.0000 N   0  0
  1  2  1  0
  2  3  2  0
  3  4  1  0
  4  5  2  0
  5  6  1  0
  5  7  1  0
  7  8  2  0
  8  2  1  0
  1  9  1  0
  9 10  2  0
  9 11  1  0
 11 12  1  0
 12 13  3  0
M  END
> <Smiles>
N(c1ccc(C)cc1)C(=N)NC#N

> <IC50_uM>
0.691830971

> <pIC50>
6.16

> <Activity>
1

$$$$

  SciTegic10102310092D

 13 15  0  0  0  0            999 V2000
    0.3606   -4.2459    0.0000 O   0  0
    0.7488   -2.7970    0.0000 C   0  0
    2.0479   -2.0470    0.0000 N   0  0
    1.2990   -0.7500    0.0000 C   0  0  3  0  0  0
    1.2990    0.7500    0.0000 C   0  0
    0.0000    1.5000    0.0000 C   0  0
    0.0000    3.0000    0.0000 C   0  0
    1.2990    3.7500    0.0000 C   0  0
    2.5981    3.0000    0.0000 C   0  0
    2.5981    1.5000    0.0000 C   0  0
   -1.2990    0.7500    0.0000 C   0  0
   -1.2990   -0.7500    0.0000 C   0  0
    0.0000   -1.5000    0.0000 C   0  0  3  0  0  0
  1  2  2  0
  2  3  1  0
  4  3  1  4
  4  5  1  0
  5  6  2  0
  6  7  1  0
  7  8  2  0
  8  9  1  0
  9 10  2  0
 10  5  1  0
  6 11  1  0
 11 12  1  0
  4 13  1  0
 13  2  1  0
 13 12  1  4
M  END
> <Smiles>
O=C1NC(c2c(cccc2)CC3)C13

> <IC50_uM>
0.691830971

> <pIC50>
6.16

> <Activity>
1

$$$$

  SciTegic10102310092D

  9  9  0  0  0  0            999 V2000
    1.6332   -2.2426    0.0000 C   0  0
    0.7500   -1.0323    0.0000 N   0  0
    1.2135    0.3943    0.0000 N   0  0
    0.0000    1.2760    0.0000 N   0  0
   -1.2135    0.3943    0.0000 N   0  0
   -0.7500   -1.0323    0.0000 C   0  0
   -1.6317   -2.2458    0.0000 N   0  0
    3.1255   -2.0835    0.0000 C   0  0
    4.6171   -1.9246    0.0000 C   0  0
  1  2  1  0
  2  3  1  0
  3  4  2  0
  4  5  1  0
  5  6  1  0
  6  2  1  0
  6  7  2  0
  1  8  2  0
  8  9  2  0
M  END
> <Smiles>
C(N1N=NNC1=N)=C=C

> <IC50_uM>
0.691830971

> <pIC50>
6.16

> <Activity>
1

$$$$

  SciTegic10102310092D

 11 11  0  0  0  0            999 V2000
    1.2990   -0.7500    0.0000 N   0  0
    2.5973   -1.5031    0.0000 C   0  0
    3.8976   -0.7553    0.0000 C   0  0
    2.5951   -3.0031    0.0000 O   0  0
    1.2990    0.7500    0.0000 C   0  0
    0.0000    1.5000    0.0000 C   0  0
   -1.2990    0.7500    0.0000 N   0  0
   -2.6003    1.4977    0.0000 C   0  0
   -3.8983    0.7459    0.0000 S   0  0
   -1.2990   -0.7500    0.0000 C   0  0
    0.0000   -1.5000    0.0000 C   0  0
  1  2  1  0
  2  3  1  0
  2  4  2  0
  1  5  1  0
  5  6  1  0
  6  7  1  0
  7  8  1  0
  8  9  2  0
  7 10  1  0
 10 11  1  0
 11  1  1  0
M  END
> <Smiles>
N1(C(C)=O)CCN(C=S)CC1

> <IC50_uM>
0.691830971

> <pIC50>
6.16

> <Activity>
1

$$$$

  SciTegic10102310092D

 12 12  0  0  0  0            999 V2000
    1.2990   -0.7500    0.0000 C   0  0
    1.2990    0.7500    0.0000 C   0  0  3  0  0  0
    2.5981    1.5000    0.0000 O   0  0
    0.0000    1.5000    0.0000 C   0  0
    1.3164    2.2191    0.0000 C   0  0
   -1.3163    2.2193    0.0000 C   0  0
   -1.2990    0.7500    0.0000 C   0  0
   -1.2990   -0.7500    0.0000 O   0  0
    0.0000   -1.5000    0.0000 C   0  0
    1.3164   -2.2191    0.0000 C   0  0
   -1.3163   -2.2193    0.0000 C   0  0
    2.5981   -1.5000    0.0000 O   0  0
  1  2  1  0
  2  3  1  4
  2  4  1  0
  4  5  1  0
  4  6  1  0
  4  7  1  0
  7  8  1  0
  8  9  1  0
  9  1  1  0
  9 10  1  0
  9 11  1  0
  1 12  2  0
M  END
> <Smiles>
C1(C(O)C(C)(C)COC1(C)C)=O

> <IC50_uM>
0.691830971

> <pIC50>
6.16

> <Activity>
1

$$$$

  SciTegic10102310092D

 11 10  0  0  0  0            999 V2000
    7.7999    0.0000    0.0000 C   0  0
    6.5000    0.7500    0.0000 C   0  0
    5.2000    0.0000    0.0000 C   0  0
    3.9000    0.7500    0.0000 C   0  0
    2.6000    0.0000    0.0000 N   0  0
    1.3000    0.7500    0.0000 C   0  0
    0.0007    0.0004    0.0000 O   0  0
    9.0999    0.7500    0.0000 Si  0  0
   10.3992    0.0004    0.0000 C   0  0
    9.0999    2.2500    0.0000 C   0  0
   10.3988    1.5002    0.0000 C   0  0
  1  2  2  0
  2  3  1  0
  3  4  1  0
  4  5  1  0
  5  6  1  0
  6  7  2  0
  1  8  1  0
  8  9  1  0
  8 10  1  0
  8 11  1  0
M  END
> <Smiles>
C(=C\CCNC=O)/[Si](C)(C)C

> <IC50_uM>
0.691830971

> <pIC50>
6.16

> <Activity>
1

$$$$

  SciTegic10102310092D

 12 13  0  0  0  0            999 V2000
    0.7500   -1.0323    0.0000 C   0  0
    1.6317   -2.2458    0.0000 O   0  0
    1.2135    0.3943    0.0000 O   0  0
    0.0000    1.2760    0.0000 C   0  0  3  0  0  0
   -1.3108    2.0053    0.0000 C   0  0
    1.2999    1.9990    0.0000 C   0  0
    2.5993    1.2496    0.0000 O   0  0
   -1.2135    0.3943    0.0000 C   0  0  3  0  0  0
   -2.7115    0.3949    0.0000 C   0  0
   -3.1750   -1.0317    0.0000 C   0  0
   -1.9615   -1.9133    0.0000 C   0  0
   -0.7500   -1.0323    0.0000 N   0  0
  1  2  2  0
  1  3  1  0
  3  4  1  0
  4  5  1  4
  4  6  1  0
  6  7  1  0
  4  8  1  0
  8  9  1  4
  9 10  1  0
 10 11  1  0
  8 12  1  0
 12  1  1  0
 12 11  1  0
M  END
> <Smiles>
C1(=O)OC(C)(CO)C(CCC2)N12

> <IC50_uM>
0.691830971

> <pIC50>
6.16

> <Activity>
1

$$$$

  SciTegic10102310092D

 11 11  0  0  0  0            999 V2000
    0.7500   -1.0323    0.0000 C   0  0
    1.2135    0.3943    0.0000 S   0  0
    0.0000    1.2760    0.0000 C   0  0
   -0.0031    2.7742    0.0000 N   0  0
   -1.3040    3.5228    0.0000 C   0  0
   -1.3071    5.0236    0.0000 C   0  0
   -2.6079    5.7721    0.0000 N   0  0
   -2.6110    7.2721    0.0000 O   0  0
   -0.0094    5.7759    0.0000 O   0  0
   -1.2135    0.3943    0.0000 N   0  0
   -0.7500   -1.0323    0.0000 N   0  0
  1  2  1  0
  2  3  1  0
  3  4  1  0
  4  5  1  0
  5  6  1  0
  6  7  1  0
  7  8  1  0
  6  9  2  0
  3 10  2  0
 10 11  1  0
 11  1  2  0
M  END
> <Smiles>
c1sc(NCC(NO)=O)nn1

> <IC50_uM>
0.691830971

> <pIC50>
6.16

> <Activity>
1

$$$$

  SciTegic10102310092D

 12 11  0  0  0  0            999 V2000
    0.0007    0.0004    0.0000 C   0  0
    1.3000    0.7500    0.0000 C   0  0
    2.6000    0.0000    0.0000 O   0  0
    3.9000    0.7500    0.0000 C   0  0
    5.2000    0.0000    0.0000 C   0  0
    6.5000    0.7500    0.0000 N   0  0
    7.7999    0.0000    0.0000 C   0  0
    9.0999    0.7500    0.0000 C   0  0
   10.3999    0.0000    0.0000 O   0  0
   11.6999    0.7500    0.0000 C   0  0
   12.9992    0.0004    0.0000 C   0  0
    9.0999    2.2500    0.0000 O   0  0
  1  2  1  0
  2  3  1  0
  3  4  1  0
  4  5  1  0
  5  6  2  0
  6  7  1  0
  7  8  1  0
  8  9  1  0
  9 10  1  0
 10 11  1  0
  8 12  2  0
M  END
> <Smiles>
CCOC\C=N\CC(OCC)=O

> <IC50_uM>
0.691830971

> <pIC50>
6.16

> <Activity>
1

$$$$

  SciTegic10102310092D

 12 12  0  0  0  0            999 V2000
    1.2990   -0.7500    0.0000 N   0  0
    2.6003   -1.4977    0.0000 C   0  0
    3.8990   -0.7455    0.0000 O   0  0
    5.2003   -1.4932    0.0000 C   0  0
    6.4983   -0.7414    0.0000 C   0  0
    1.2990    0.7500    0.0000 C   0  0
    0.0000    1.5000    0.0000 O   0  0
   -1.2990    0.7500    0.0000 C   0  0
   -1.2990   -0.7500    0.0000 N   0  0
   -2.5981   -1.5000    0.0000 C   0  0
    0.0000   -1.5000    0.0000 C   0  0
    0.0000   -3.0000    0.0000 O   0  0
  1  2  1  0
  2  3  1  0
  3  4  1  0
  4  5  1  0
  1  6  1  0
  6  7  1  0
  7  8  1  0
  8  9  1  0
  9 10  1  0
  9 11  1  0
 11  1  1  0
 11 12  2  0
M  END
> <Smiles>
N1(COCC)COCN(C)C1=O

> <IC50_uM>
0.691830971

> <pIC50>
6.16

> <Activity>
1

$$$$

  SciTegic10102310092D

 12 11  0  0  0  0            999 V2000
    7.7999    0.0000    0.0000 N   0  0
    6.5000    0.7500    0.0000 C   0  0
    5.2000    0.0000    0.0000 N   0  0
    3.9000    0.7500    0.0000 C   0  0
    2.6000    0.0000    0.0000 C   0  0
    1.3000    0.7500    0.0000 O   0  0
    0.0007    0.0004    0.0000 C   0  0
    2.6000   -1.5000    0.0000 O   0  0
    5.1989    1.5002    0.0000 C   0  0
    3.9000    2.2500    0.0000 C   0  0
    9.0992    0.7496    0.0000 C   0  0
    7.7999   -1.5000    0.0000 C   0  0
  1  2  1  0
  2  3  2  0
  3  4  1  0
  4  5  1  0
  5  6  1  0
  6  7  1  0
  5  8  2  0
  4  9  1  0
  4 10  1  0
  1 11  1  0
  1 12  1  0
M  END
> <Smiles>
N(\C=N\C(C(OC)=O)(C)C)(C)C

> <IC50_uM>
0.691830971

> <pIC50>
6.16

> <Activity>
1

$$$$

  SciTegic10102310092D

 13 14  0  0  0  0            999 V2000
    1.2990   -0.7500    0.0000 C   0  0
    1.2990    0.7500    0.0000 C   0  0
    0.0000    1.5000    0.0000 C   0  0
   -1.2990    0.7500    0.0000 C   0  0
   -1.2990   -0.7500    0.0000 C   0  0
    0.0000   -1.5000    0.0000 C   0  0
    2.7248    1.2135    0.0000 N   0  0
    3.6065    0.0000    0.0000 C   0  0
    2.7248   -1.2135    0.0000 N   0  0
    5.1047   -0.0031    0.0000 C   0  0
    5.8532   -1.3039    0.0000 C   0  0
    5.1010   -2.6016    0.0000 C   0  0
    7.3532   -1.3070    0.0000 O   0  0
  1  2  2  0
  2  3  1  0
  3  4  2  0
  4  5  1  0
  5  6  2  0
  6  1  1  0
  2  7  1  0
  7  8  1  0
  8  9  1  0
  9  1  1  0
  8 10  2  0
 10 11  1  0
 11 12  1  0
 11 13  2  0
M  END
> <Smiles>
c12c(cccc1)NC(N2)=CC(C)=O

> <IC50_uM>
0.691830971

> <pIC50>
6.16

> <Activity>
1

$$$$

  SciTegic10102310092D

 12 11  0  0  0  0            999 V2000
    7.7999   -1.5000    0.0000 C   0  0
    7.7999    0.0000    0.0000 C   0  0
    6.5000    0.7500    0.0000 N   0  0
    5.2000    0.0000    0.0000 O   0  0
    3.9000    0.7500    0.0000 C   0  0
    2.6000    0.0000    0.0000 C   0  0
    1.3000    0.7500    0.0000 C   0  0
    1.3000    2.2500    0.0000 C   0  0
    0.0007    0.0004    0.0000 O   0  0
    3.9000    2.2500    0.0000 O   0  0
    6.5000    2.2500    0.0000 C   0  0
    9.0992    0.7496    0.0000 O   0  0
  1  2  1  0
  2  3  1  0
  3  4  1  0
  4  5  1  0
  5  6  1  0
  6  7  1  0
  7  8  1  0
  7  9  2  0
  5 10  2  0
  3 11  1  0
  2 12  2  0
M  END
> <Smiles>
CC(N(OC(CC(C)=O)=O)C)=O

> <IC50_uM>
0.691830971

> <pIC50>
6.16

> <Activity>
1

$$$$

  SciTegic10102310092D

 12 11  0  0  0  0            999 V2000
    2.6014    3.0016    0.0000 C   0  0
    3.9000    2.2507    0.0000 C   0  0
    3.9000    0.7500    0.0000 C   0  0
    2.6000    0.0000    0.0000 O   0  0
    2.5986   -1.5008    0.0000 C   0  0
    1.2993   -2.2504    0.0000 C   0  0
    5.2000    0.0000    0.0000 O   0  0
    6.5000    0.7500    0.0000 C   0  0
    7.7992    0.0004    0.0000 C   0  0
    2.5732    1.5119    0.0000 O   0  0
    1.2748    0.7593    0.0000 C   0  0
   -0.0261    1.5062    0.0000 C   0  0
  1  2  2  0
  2  3  1  0
  3  4  1  0
  4  5  1  0
  5  6  1  0
  3  7  1  0
  7  8  1  0
  8  9  1  0
  3 10  1  0
 10 11  1  0
 11 12  1  0
M  END
> <Smiles>
C=CC(OCC)(OCC)OCC

> <IC50_uM>
0.691830971

> <pIC50>
6.16

> <Activity>
1

$$$$

  SciTegic10102310092D

 21 22  0  0  0  0            999 V2000
    2.6003   -1.4977    0.0000 C   0  0
    1.2990   -0.7500    0.0000 C   0  0
    1.2990    0.7500    0.0000 C   0  0
    0.0000    1.5000    0.0000 C   0  0
   -1.2990    0.7500    0.0000 C   0  0
   -2.6003    1.4977    0.0000 C   0  0
   -2.6030    2.9977    0.0000 N   0  0
   -3.8983    0.7459    0.0000 N   0  0
   -1.2990   -0.7500    0.0000 C   0  0
    0.0000   -1.5000    0.0000 C   0  0
    0.0000   -3.0000    0.0000 O   0  0
    3.8990   -0.7455    0.0000 C   0  0
    5.2003   -1.4932    0.0000 C   0  0
    6.4994   -0.7432    0.0000 C   0  0
    7.7985   -1.4932    0.0000 C   0  0
    7.7985   -2.9932    0.0000 C   0  0
    6.4995   -3.7432    0.0000 C   0  0
    9.0967   -3.7463    0.0000 C   0  0
   10.3971   -2.9985    0.0000 N   0  0
    9.0946   -5.2463    0.0000 N   0  0
    5.2004   -2.9933    0.0000 C   0  0
  1  2  1  0
  2  3  2  0
  3  4  1  0
  4  5  2  0
  5  6  1  0
  6  7  1  0
  6  8  2  0
  5  9  1  0
  2 10  1  0
 10  9  2  0
 10 11  1  0
  1 12  2  0
 12 13  1  0
 13 14  2  0
 14 15  1  0
 15 16  2  0
 16 17  1  0
 16 18  1  0
 18 19  1  0
 18 20  2  0
 13 21  1  0
 21 17  2  0
M  END
> <Smiles>
C(/c(ccc(C(N)=N)c1)c1O)=C\c(ccc(c2)C(N)=N)c2

> <IC50_uM>
0.691830971

> <pIC50>
6.16

> <Activity>
1

$$$$

  SciTegic10102310092D

 12 12  0  0  0  0            999 V2000
   -2.0420   -1.1753    0.0000 C   0  0
   -0.7500   -0.4330    0.0000 C   0  0
    0.7500   -0.4330    0.0000 C   0  0
    0.0000    0.8660    0.0000 C   0  0
   -2.0448   -2.6753    0.0000 C   0  0
   -3.3407   -0.4229    0.0000 N   0  0
   -4.6420   -1.1706    0.0000 O   0  0
   -5.9406   -0.4182    0.0000 C   0  0
   -7.2420   -1.1658    0.0000 C   0  0
   -8.5406   -0.4135    0.0000 C   0  0
   -8.5379    1.0865    0.0000 O   0  0
   -9.8412   -1.1607    0.0000 O   0  0
  1  2  1  0
  2  3  1  0
  3  4  1  0
  4  2  1  0
  1  5  1  0
  1  6  2  0
  6  7  1  0
  7  8  1  0
  8  9  1  0
  9 10  1  0
 10 11  1  0
 10 12  2  0
M  END
> <Smiles>
C(/C1CC1)(\C)=N\OCCC(O)=O

> <IC50_uM>
0.691830971

> <pIC50>
6.16

> <Activity>
1

$$$$

  SciTegic10102310092D

 29 31  0  0  0  0            999 V2000
   -1.3168   -9.7480    0.0000 C   0  0
   -1.3135   -8.2480    0.0000 O   0  0
   -0.0126   -7.4996    0.0000 C   0  0
    1.2850   -8.2520    0.0000 O   0  0
   -0.0094   -5.9988    0.0000 C   0  0
    1.2915   -5.2503    0.0000 C   0  0
    1.2948   -3.7495    0.0000 C   0  0
    2.5957   -3.0011    0.0000 C   0  0
    2.5990   -1.5003    0.0000 C   0  0
    3.8990   -0.7504    0.0000 C   0  0
    3.9040    0.7496    0.0000 C   0  0
    5.2054    1.4954    0.0000 C   0  0
    6.5020    0.7412    0.0000 C   0  0
    7.8042    1.4874    0.0000 C   0  0
    9.1057    2.2332    0.0000 N   0  0
    6.4972   -0.7588    0.0000 C   0  0
    5.1957   -1.5046    0.0000 C   0  0
    1.2990   -0.7500    0.0000 C   0  0
    1.2990    0.7500    0.0000 C   0  0
    0.0000    1.5000    0.0000 C   0  0
    0.0000    3.0000    0.0000 C   0  0
   -1.2990    0.7500    0.0000 C   0  0
   -2.7248    1.2135    0.0000 O   0  0
   -3.6065    0.0000    0.0000 N   0  0
   -2.7248   -1.2135    0.0000 C   0  0
   -3.1904   -2.6376    0.0000 O   0  0
   -4.6580   -2.9476    0.0000 C   0  0
   -1.2990   -0.7500    0.0000 C   0  0
    0.0000   -1.5000    0.0000 C   0  0
  1  2  1  0
  2  3  1  0
  3  4  2  0
  3  5  1  0
  5  6  1  0
  6  7  1  0
  7  8  1  0
  8  9  2  0
  9 10  1  0
 10 11  2  0
 11 12  1  0
 12 13  2  0
 13 14  1  0
 14 15  3  0
 13 16  1  0
 16 17  2  0
 17 10  1  0
  9 18  1  0
 18 19  2  0
 19 20  1  0
 20 21  1  0
 20 22  2  0
 22 23  1  0
 23 24  1  0
 24 25  2  0
 25 26  1  0
 26 27  1  0
 25 28  1  0
 28 22  1  0
 28 29  2  0
 29 18  1  0
M  END
> <Smiles>
COC(=O)CCC/C=C(/c1ccc(C#N)cc1)c1cc(C)c2onc(OC)c2c1

> <IC50_uM>
0.7

> <pIC50>
6.15490196

> <Activity>
1

$$$$

  SciTegic10102310092D

 30 33  0  0  0  0            999 V2000
   -0.6923   -4.0811    0.0000 C   0  0
    0.3114   -2.9665    0.0000 C   0  0
    1.8032   -3.1233    0.0000 N   0  0
    2.4133   -1.7530    0.0000 C   0  0
    3.8794   -1.4442    0.0000 C   0  0
    4.8823   -2.5608    0.0000 C   0  0
    6.3509   -2.2515    0.0000 C   0  0
    7.3538   -3.3681    0.0000 C   0  0
    8.8224   -3.0588    0.0000 C   0  0
    9.8253   -4.1753    0.0000 C   0  0
   11.2939   -3.8660    0.0000 C   0  0
   11.7596   -2.4402    0.0000 O   0  0
   12.2967   -4.9826    0.0000 C   0  0
   13.7650   -4.6756    0.0000 C   0  0
   14.7651   -5.7936    0.0000 C   0  0
   14.2969   -7.2187    0.0000 C   0  0
   12.8286   -7.5258    0.0000 C   0  0
   11.8286   -6.4078    0.0000 C   0  0
    1.2990   -0.7500    0.0000 N   0  0
    1.2990    0.7500    0.0000 N   0  0
    0.0000    1.5000    0.0000 C   0  0
    0.0000    3.0008    0.0000 N   0  0
   -1.2149    3.8587    0.0000 C   0  0
   -0.7536    5.2860    0.0000 C   0  0
    0.7463    5.2884    0.0000 N   0  0
    1.2121    3.8625    0.0000 C   0  0
    2.6367    3.3928    0.0000 C   0  0
   -1.2990    0.7500    0.0000 C   0  0
   -1.2990   -0.7500    0.0000 C   0  0
    0.0000   -1.5000    0.0000 C   0  0
  1  2  1  0
  2  3  1  0
  3  4  2  0
  4  5  1  0
  5  6  1  0
  6  7  1  0
  7  8  1  0
  8  9  1  0
  9 10  1  0
 10 11  1  0
 11 12  2  0
 11 13  1  0
 13 14  2  0
 14 15  1  0
 15 16  2  0
 16 17  1  0
 17 18  2  0
 18 13  1  0
  4 19  1  0
 19 20  1  0
 20 21  2  0
 21 22  1  0
 22 23  1  0
 23 24  2  0
 24 25  1  0
 25 26  2  0
 26 22  1  0
 26 27  1  0
 21 28  1  0
 28 29  2  0
 29 30  1  0
 30  2  2  0
 30 19  1  0
M  END
> <Smiles>
Cc1nc(CCCCCCC(=O)c2ccccc2)n2nc(-n3ccnc3C)ccc12

> <IC50_uM>
0.7

> <pIC50>
6.15490196

> <Activity>
1

$$$$

  SciTegic10102310092D

 29 33  0  0  0  0            999 V2000
    2.5981   -1.5000    0.0000 O   0  0
    1.2990   -0.7500    0.0000 C   0  0
    1.2990    0.7500    0.0000 N   0  0
    0.0000    1.5000    0.0000 C   0  0
    0.0031    3.0008    0.0000 N   0  0
    1.3039    3.7494    0.0000 C   0  0
    1.3092    5.2494    0.0000 C   0  0
    2.6108    5.9949    0.0000 C   0  0
    3.9072    5.2405    0.0000 C   0  0
    5.2095    5.9863    0.0000 C   0  0
    5.2171    7.4864    0.0000 C   0  0
    6.5200    8.2298    0.0000 N   0  0
    7.8152    7.4733    0.0000 C   0  0
    9.1180    8.2167    0.0000 C   0  0
   10.4132    7.4602    0.0000 C   0  0
   10.4057    5.9602    0.0000 C   0  0
    9.1029    5.2168    0.0000 C   0  0
    7.8076    5.9733    0.0000 C   0  0
    6.5048    5.2299    0.0000 C   0  0
    3.9020    3.7405    0.0000 C   0  0
    2.6004    2.9949    0.0000 C   0  0
   -1.2990    0.7500    0.0000 C   0  0
   -2.5981    1.5000    0.0000 C   0  0
   -3.8971    0.7500    0.0000 C   0  0
   -3.8971   -0.7500    0.0000 C   0  0
   -2.5981   -1.5000    0.0000 N   0  0
   -1.2990   -0.7500    0.0000 C   0  0
    0.0000   -1.5000    0.0000 N   0  0
    0.0000   -3.0000    0.0000 O   0  0
  1  2  2  0
  2  3  1  0
  3  4  2  0
  4  5  1  0
  5  6  1  0
  6  7  2  0
  7  8  1  0
  8  9  2  0
  9 10  1  0
 10 11  2  0
 11 12  1  0
 12 13  2  0
 13 14  1  0
 14 15  2  0
 15 16  1  0
 16 17  2  0
 17 18  1  0
 18 13  1  0
 18 19  2  0
 19 10  1  0
  9 20  1  0
 20 21  2  0
 21  6  1  0
  4 22  1  0
 22 23  2  0
 23 24  1  0
 24 25  2  0
 25 26  1  0
 26 27  2  0
 27 22  1  0
 27 28  1  0
 28  2  1  0
 28 29  1  0
M  END
> <Smiles>
O=c1nc(Nc2ccc(-c3cnc4ccccc4c3)cc2)c2cccnc2n1O

> <IC50_uM>
0.7

> <pIC50>
6.15490196

> <Activity>
1

$$$$

  SciTegic10102310092D

 42 45  0  0  1  0            999 V2000
  -19.4825   -0.7493    0.0000 C   0  0
  -18.1819   -1.4966    0.0000 O   0  0
  -16.8833   -0.7444    0.0000 C   0  0
  -16.8823    0.7556    0.0000 C   0  0
  -15.5828    1.5048    0.0000 C   0  0
  -14.2842    0.7540    0.0000 C   0  0
  -12.9847    1.5032    0.0000 C   0  0
  -11.6862    0.7524    0.0000 C   0  0
  -10.3875    1.5047    0.0000 C   0  0
   -9.5209    1.0056    0.0000 O   0  0
  -10.3887    3.0055    0.0000 N   0  0
   -9.0900    3.7578    0.0000 C   0  0  1  0  0  0
   -7.7909    3.0061    0.0000 C   0  0
   -7.7914    1.5053    0.0000 C   0  0
   -9.0891    0.7530    0.0000 C   0  0
   -9.0865   -0.7470    0.0000 C   0  0
   -7.7862   -1.4948    0.0000 C   0  0
   -6.4885   -0.7426    0.0000 C   0  0
   -6.4911    0.7574    0.0000 C   0  0
   -9.0912    5.2586    0.0000 C   0  0  2  0  0  0
   -9.9578    5.7576    0.0000 O   0  0
   -7.7925    6.0109    0.0000 C   0  0
   -7.7937    7.5117    0.0000 N   0  0
   -9.0958    8.2580    0.0000 C   0  0
  -10.3937    7.5043    0.0000 C   0  0
  -11.6951    8.2501    0.0000 C   0  0
  -10.3908    6.5043    0.0000 C   0  0
   -6.4950    8.2640    0.0000 S   0  0
   -5.1952    7.5154    0.0000 O   0  0
   -6.4931    6.7640    0.0000 O   0  0
   -6.4962    9.7648    0.0000 C   0  0
   -7.7959   10.5138    0.0000 C   0  0
   -7.7971   12.0138    0.0000 C   0  0
   -6.4986   12.7648    0.0000 C   0  0
   -6.4998   14.2648    0.0000 N   0  0
   -5.1990   12.0158    0.0000 C   0  0
   -5.1978   10.5158    0.0000 C   0  0
  -11.6871   -0.7476    0.0000 C   0  0
  -10.3885   -1.4984    0.0000 O   0  0
  -12.9866   -1.4968    0.0000 O   0  0
  -14.2852   -0.7460    0.0000 C   0  0
  -15.5847   -1.4952    0.0000 C   0  0
  1  2  1  0
  2  3  1  0
  3  4  2  0
  4  5  1  0
  5  6  2  0
  6  7  1  0
  7  8  2  0
  8  9  1  0
  9 10  2  0
  9 11  1  0
 12 11  1  6
 12 13  1  0
 13 14  1  0
 14 15  2  0
 15 16  1  0
 16 17  2  0
 17 18  1  0
 18 19  2  0
 19 14  1  0
 12 20  1  0
 20 21  1  6
 20 22  1  0
 22 23  1  0
 23 24  1  0
 24 25  1  0
 25 26  1  0
 25 27  1  0
 23 28  1  0
 28 29  2  0
 28 30  2  0
 28 31  1  0
 31 32  2  0
 32 33  1  0
 33 34  2  0
 34 35  1  0
 34 36  1  0
 36 37  2  0
 37 31  1  0
  8 38  1  0
 38 39  2  0
 38 40  1  0
 40 41  1  0
 41  6  1  0
 41 42  2  0
 42  3  1  0
M  END
> <Smiles>
COc1ccc2cc(C(=O)N[C@@H](Cc3ccccc3)[C@H](O)CN(CC(C)C)S(=O)(=O)c3ccc(N)cc3)c(=O)oc2c1

> <IC50_uM>
0.7057

> <pIC50>
6.151379883

> <Activity>
1

$$$$

  SciTegic10102310092D

 12 11  0  0  0  0            999 V2000
    3.9000    0.7500    0.0000 C   0  0  3  0  0  0
    3.9000    2.2500    0.0000 O   0  0
    2.6000    0.0000    0.0000 C   0  0
    2.6000   -1.5000    0.0000 O   0  0
    1.3000    0.7500    0.0000 N   0  0
    0.0007    0.0004    0.0000 N   0  0
    5.2000    0.0000    0.0000 C   0  0  3  0  0  0
    5.2000   -1.5000    0.0000 O   0  0
    6.5000    0.7500    0.0000 C   0  0
    6.5000    2.2500    0.0000 O   0  0
    7.7999    0.0000    0.0000 N   0  0
    9.0992    0.7496    0.0000 N   0  0
  1  2  1  4
  1  3  1  0
  3  4  2  0
  3  5  1  0
  5  6  1  0
  1  7  1  0
  7  8  1  4
  7  9  1  0
  9 10  2  0
  9 11  1  0
 11 12  1  0
M  END
> <Smiles>
C(O)(C(=O)NN)C(O)C(=O)NN

> <IC50_uM>
0.707945784

> <pIC50>
6.15

> <Activity>
1

$$$$

  SciTegic10102310092D

 10 11  0  0  0  0            999 V2000
    0.0933   -1.1968    0.0000 O   0  0
    0.0933    0.3032    0.0000 C   0  0
    1.3062    1.4928    0.0000 C   0  0
    0.0000    0.7464    0.0000 C   0  0
   -1.3062    1.4695    0.0000 N   0  0  3  0  0  0
   -1.3062    3.0789    0.0000 C   0  0
    0.0000    3.8253    0.0000 C   0  0
   -1.0613    2.5891    0.0000 C   0  0
   -2.2275    0.4898    0.0000 C   0  0
   -1.0613    0.9913    0.0000 C   0  0  3  0  0  0
  1  2  2  0
  2  3  1  0
  3  4  1  0
  5  4  1  4
  5  6  1  0
  6  7  1  0
  7  8  1  0
  5  9  1  0
 10  9  1  4
 10  2  1  0
 10  8  1  0
M  END
> <Smiles>
O=C1CCN(CCC2)CC12

> <IC50_uM>
0.707945784

> <pIC50>
6.15

> <Activity>
1

$$$$

  SciTegic10102310092D

 11 11  0  0  0  0            999 V2000
    1.6307   -2.2444    0.0000 S   0  0
    0.7500   -1.0323    0.0000 C   0  0
    1.2135    0.3943    0.0000 N   0  0
    0.0000    1.2760    0.0000 C   0  0
   -1.2135    0.3943    0.0000 N   0  0
   -0.7500   -1.0323    0.0000 C   0  0
   -1.6317   -2.2458    0.0000 N   0  0
    2.6401    0.8578    0.0000 C   0  0
    3.1225   -2.0885    0.0000 O   0  0
    1.0201   -3.6145    0.0000 O   0  0
    2.5118   -3.4583    0.0000 N   0  0
  1  2  1  0
  2  3  1  0
  3  4  1  0
  4  5  2  0
  5  6  1  0
  6  2  2  0
  6  7  1  0
  3  8  1  0
  1  9  2  0
  1 10  2  0
  1 11  1  0
M  END
> <Smiles>
S(c1n(cnc1N)C)(=O)(=O)N

> <IC50_uM>
0.707945784

> <pIC50>
6.15

> <Activity>
1

$$$$

  SciTegic10102310092D

 10 10  0  0  0  0            999 V2000
    2.5973   -1.5031    0.0000 N   0  3
    1.2990   -0.7500    0.0000 C   0  0
    1.2990    0.7500    0.0000 C   0  0
    0.0000    1.5000    0.0000 C   0  0
   -1.2990    0.7500    0.0000 N   0  3
   -2.5981    1.5000    0.0000 O   0  5
   -1.2990   -0.7500    0.0000 C   0  0
    0.0000   -1.5000    0.0000 C   0  0
    3.8976   -0.7553    0.0000 O   0  5
    2.5951   -3.0031    0.0000 O   0  0
  1  2  1  0
  2  3  2  0
  3  4  1  0
  4  5  2  0
  5  6  1  0
  5  7  1  0
  7  8  2  0
  8  2  1  0
  1  9  1  0
  1 10  2  0
M  CHG  4   1   1   5   1   6  -1   9  -1
M  END
> <Smiles>
[N+](c1cc[n+]([O-])cc1)([O-])=O

> <IC50_uM>
0.707945784

> <pIC50>
6.15

> <Activity>
1

$$$$

  SciTegic10102310092D

 11 10  0  0  0  0            999 V2000
    6.5000    0.7500    0.0000 C   0  0
    5.2000    0.0000    0.0000 S   0  0
    3.9000    0.7500    0.0000 C   0  0
    2.6000    0.0000    0.0000 C   0  0
    1.3000    0.7500    0.0000 C   0  0
    1.3000    2.2500    0.0000 O   0  0
    0.0007    0.0004    0.0000 O   0  0
    7.7999    0.0000    0.0000 C   0  0
    9.0999    0.7500    0.0000 C   0  0
    9.0999    2.2500    0.0000 O   0  0
   10.3992    0.0004    0.0000 O   0  0
  1  2  1  0
  2  3  1  0
  3  4  2  0
  4  5  1  0
  5  6  1  0
  5  7  2  0
  1  8  1  0
  8  9  1  0
  9 10  1  0
  9 11  2  0
M  END
> <Smiles>
C(S\C=C\C(O)=O)CC(O)=O

> <IC50_uM>
0.707945784

> <pIC50>
6.15

> <Activity>
1

$$$$

  SciTegic10102310092D

 11 11  0  0  0  0            999 V2000
    2.6003   -1.4977    0.0000 C   0  0
    1.2990   -0.7500    0.0000 C   0  0
    1.2990    0.7500    0.0000 C   0  0
    0.0000    1.5000    0.0000 C   0  0
   -1.2990    0.7500    0.0000 N   0  0
   -1.2990   -0.7500    0.0000 N   0  0
    0.0000   -1.5000    0.0000 C   0  0
    0.0000   -3.0000    0.0000 O   0  0
    0.0000    3.0000    0.0000 Cl  0  0
    2.6030   -2.9977    0.0000 O   0  0
    3.8983   -0.7459    0.0000 O   0  0
  1  2  1  0
  2  3  2  0
  3  4  1  0
  4  5  2  0
  5  6  1  0
  6  7  2  0
  7  2  1  0
  7  8  1  0
  4  9  1  0
  1 10  1  0
  1 11  2  0
M  END
> <Smiles>
C(c1cc(nnc1O)Cl)(O)=O

> <IC50_uM>
0.707945784

> <pIC50>
6.15

> <Activity>
1

$$$$

  SciTegic10102310092D

 10 10  0  0  0  0            999 V2000
    2.5981   -1.5000    0.0000 O   0  0
    1.2990   -0.7500    0.0000 S   0  0  3  0  0  0
    1.2990    0.7500    0.0000 C   0  0  3  0  0  0
    0.0000    1.5000    0.0000 S   0  0
   -1.2990    0.7500    0.0000 C   0  0  3  0  0  0
   -2.5981    1.5000    0.0000 C   0  0
   -1.2990   -0.7500    0.0000 C   0  0
    0.0000   -1.5000    0.0000 C   0  0  3  0  0  0
    0.0000   -3.0000    0.0000 C   0  0
    2.5981    1.5000    0.0000 C   0  0
  2  1  2  3
  2  3  1  0
  3  4  1  0
  4  5  1  0
  5  6  1  4
  5  7  1  0
  7  8  1  0
  8  2  1  0
  8  9  1  4
  3 10  1  4
M  END
> <Smiles>
O=S1C(SC(C)CC1C)C

> <IC50_uM>
0.707945784

> <pIC50>
6.15

> <Activity>
1

$$$$

  SciTegic10102310092D

 10 11  0  0  0  0            999 V2000
    2.5532   -4.4223    0.0000 Cl  0  0
    1.8032   -3.1233    0.0000 P   0  0  3  0  0  0
    2.4133   -1.7530    0.0000 N   0  0
    1.2990   -0.7500    0.0000 C   0  0
    1.2990    0.7500    0.0000 N   0  0
    0.0000    1.5000    0.0000 C   0  0
   -1.2990    0.7500    0.0000 N   0  0
   -1.2990   -0.7500    0.0000 C   0  0
    0.0000   -1.5000    0.0000 C   0  0
    0.3114   -2.9665    0.0000 N   0  0
  2  1  1  4
  2  3  1  0
  3  4  1  0
  4  5  2  0
  5  6  1  0
  6  7  2  0
  7  8  1  0
  4  9  1  0
  9  8  2  0
  9 10  1  0
 10  2  1  0
M  END
> <Smiles>
ClP1Nc(ncnc2)c2N1

> <IC50_uM>
0.707945784

> <pIC50>
6.15

> <Activity>
1

$$$$

  SciTegic10102310092D

 13 14  0  0  0  0            999 V2000
    1.2990   -0.7500    0.0000 C   0  0
    1.2990    0.7500    0.0000 C   0  0
    2.4133    1.7530    0.0000 C   0  0
    3.8805    1.4410    0.0000 O   0  0
    1.8032    3.1233    0.0000 N   0  0
    0.3114    2.9665    0.0000 C   0  0
   -0.6924    4.0811    0.0000 O   0  0
    2.5532    4.4223    0.0000 O   0  0
    0.0000    1.5000    0.0000 C   0  0
   -1.2990    0.7500    0.0000 C   0  0
   -1.2990   -0.7500    0.0000 C   0  0
   -2.5981   -1.5000    0.0000 N   0  0
    0.0000   -1.5000    0.0000 C   0  0
  1  2  2  0
  2  3  1  0
  3  4  2  0
  3  5  1  0
  5  6  1  0
  6  7  2  0
  5  8  1  0
  2  9  1  0
  9  6  1  0
  9 10  2  0
 10 11  1  0
 11 12  1  0
 11 13  2  0
 13  1  1  0
M  END
> <Smiles>
c1c(C(=O)N(C2=O)O)c2cc(N)c1

> <IC50_uM>
0.707945784

> <pIC50>
6.15

> <Activity>
1

$$$$

  SciTegic10102310092D

 12 11  0  0  0  0            999 V2000
    1.3000    0.7500    0.0000 C   0  0
    0.0007    0.0004    0.0000 C   0  0
    1.3000    2.2500    0.0000 C   0  0
    2.6000    0.0000    0.0000 C   0  0  3  0  0  0
    3.9000    0.7500    0.0000 C   0  0
    5.2000    0.0000    0.0000 C   0  0  3  0  0  0
    6.5000    0.7500    0.0000 C   0  0
    7.7992    0.0004    0.0000 C   0  0
    6.5000    2.2500    0.0000 C   0  0
    5.2000   -1.5000    0.0000 F   0  0
    3.9000    2.2500    0.0000 O   0  0
    2.6000   -1.5000    0.0000 O   0  0
  1  2  1  0
  1  3  1  0
  1  4  1  0
  4  5  1  0
  5  6  1  0
  6  7  1  0
  7  8  1  0
  7  9  1  0
  6 10  1  4
  5 11  2  0
  4 12  1  4
M  END
> <Smiles>
C(C)(C)C(C(C(C(C)C)F)=O)O

> <IC50_uM>
0.707945784

> <pIC50>
6.15

> <Activity>
1

$$$$

  SciTegic10102310092D

 13 14  0  0  0  0            999 V2000
    2.7343   -2.9815    0.0000 O   0  0
    4.2010   -3.2956    0.0000 C   0  0
    4.8089   -4.6669    0.0000 O   0  0
    4.9531   -1.9978    0.0000 N   0  0
    3.9511   -0.8815    0.0000 C   0  0
    4.2566    0.5871    0.0000 O   0  0
    2.5987   -1.5004    0.0000 C   0  0  3  0  0  0
    1.2990   -0.7500    0.0000 C   0  0
    1.2990    0.7500    0.0000 C   0  0
    0.0000    1.5000    0.0000 C   0  0
   -1.2990    0.7500    0.0000 C   0  0
   -1.2990   -0.7500    0.0000 C   0  0
    0.0000   -1.5000    0.0000 C   0  0
  1  2  1  0
  2  3  2  0
  2  4  1  0
  4  5  1  0
  5  6  2  0
  5  7  1  0
  7  1  1  0
  7  8  1  4
  8  9  2  0
  9 10  1  0
 10 11  2  0
 11 12  1  0
 12 13  2  0
 13  8  1  0
M  END
> <Smiles>
O1C(=O)NC(=O)C1c2ccccc2

> <IC50_uM>
0.707945784

> <pIC50>
6.15

> <Activity>
1

$$$$

  SciTegic10102310092D

 13 14  0  0  0  0            999 V2000
    1.2990   -0.7500    0.0000 C   0  0
    1.2990    0.7500    0.0000 C   0  0
    0.0000    1.5000    0.0000 C   0  0
   -1.2990    0.7500    0.0000 C   0  0
   -2.5987    1.5004    0.0000 N   0  0
   -2.6012    3.0004    0.0000 N   0  0
   -3.9015    3.7484    0.0000 C   0  0
   -3.9038    5.2484    0.0000 O   0  0
   -5.1993    2.9963    0.0000 C   0  0
   -5.1969    1.4963    0.0000 C   0  0
   -3.8967    0.7484    0.0000 C   0  0
   -1.2990   -0.7500    0.0000 C   0  0
    0.0000   -1.5000    0.0000 C   0  0
  1  2  2  0
  2  3  1  0
  3  4  2  0
  4  5  1  0
  5  6  1  0
  6  7  1  0
  7  8  2  0
  7  9  1  0
  9 10  1  0
 10 11  1  0
 11  5  1  0
  4 12  1  0
 12 13  2  0
 13  1  1  0
M  END
> <Smiles>
c1ccc(N2NC(=O)CCC2)cc1

> <IC50_uM>
0.707945784

> <pIC50>
6.15

> <Activity>
1

$$$$

  SciTegic10102310092D

 13 13  0  0  0  0            999 V2000
    2.5909   -6.0056    0.0000 C   0  0
    3.8912   -5.2578    0.0000 C   0  0
    3.8933   -3.7570    0.0000 C   0  0
    2.5951   -3.0039    0.0000 N   0  0
    2.5973   -1.5031    0.0000 C   0  0
    1.2990   -0.7500    0.0000 C   0  0
    1.2990    0.7500    0.0000 C   0  0
    0.0000    1.5000    0.0000 C   0  0
   -1.2990    0.7500    0.0000 C   0  0
   -1.2990   -0.7500    0.0000 C   0  0
    0.0000   -1.5000    0.0000 C   0  0
    5.1937   -3.0093    0.0000 N   0  0
    5.1887   -6.0105    0.0000 O   0  0
  1  2  1  0
  2  3  1  0
  3  4  1  0
  4  5  1  0
  5  6  1  0
  6  7  2  0
  7  8  1  0
  8  9  2  0
  9 10  1  0
 10 11  2  0
 11  6  1  0
  3 12  2  0
  2 13  2  0
M  END
> <Smiles>
CC(C(NCc1ccccc1)=N)=O

> <IC50_uM>
0.707945784

> <pIC50>
6.15

> <Activity>
1

$$$$

  SciTegic10102310092D

 13 14  0  0  0  0            999 V2000
    1.2990   -0.7500    0.0000 C   0  0
    1.2990    0.7500    0.0000 C   0  0
    0.0000    1.5000    0.0000 C   0  0
   -0.3115    2.9665    0.0000 C   0  0  3  0  0  0
    1.1509    2.6326    0.0000 O   0  0
   -0.7960    4.3861    0.0000 C   0  0
   -1.8032    3.1233    0.0000 C   0  0
   -2.5533    4.4223    0.0000 O   0  0
   -2.4133    1.7530    0.0000 N   0  0
   -3.8805    1.4409    0.0000 C   0  0
   -1.2990    0.7500    0.0000 C   0  0
   -1.2990   -0.7500    0.0000 C   0  0
    0.0000   -1.5000    0.0000 C   0  0
  1  2  2  0
  2  3  1  0
  3  4  1  0
  4  5  1  4
  4  6  1  0
  4  7  1  0
  7  8  2  0
  7  9  1  0
  9 10  1  0
  3 11  2  0
 11  9  1  0
 11 12  1  0
 12 13  2  0
 13  1  1  0
M  END
> <Smiles>
c1cc(C(O)(C)C(=O)N2C)c2cc1

> <IC50_uM>
0.707945784

> <pIC50>
6.15

> <Activity>
1

$$$$

  SciTegic10102310092D

 11 11  0  0  0  0            999 V2000
    0.7500   -1.0323    0.0000 S   0  0
    2.2393   -0.8531    0.0000 O   0  0
    0.1196   -2.3934    0.0000 O   0  0
    1.2135    0.3943    0.0000 C   0  0
    0.0000    1.2760    0.0000 C   0  0
   -0.0031    2.7742    0.0000 C   0  0
   -1.3040    3.5228    0.0000 O   0  0
   -1.3071    5.0228    0.0000 C   0  0
    1.2946    3.5265    0.0000 O   0  0
   -1.2135    0.3943    0.0000 C   0  0
   -0.7500   -1.0323    0.0000 C   0  0
  1  2  2  0
  1  3  2  0
  1  4  1  0
  4  5  1  0
  5  6  1  0
  6  7  1  0
  7  8  1  0
  6  9  2  0
  5 10  2  0
 10 11  1  0
 11  1  1  0
M  END
> <Smiles>
S1(=O)(=O)CC(C(OC)=O)=CC1

> <IC50_uM>
0.707945784

> <pIC50>
6.15

> <Activity>
1

$$$$

  SciTegic10102310092D

 13 13  0  0  0  0            999 V2000
    1.2990   -0.7500    0.0000 N   0  0
    1.2990    0.7500    0.0000 C   0  0
    2.5972    1.5031    0.0000 C   0  0
    2.5951    3.0039    0.0000 C   0  0
    3.8933    3.7570    0.0000 C   0  0
    3.8912    5.2578    0.0000 O   0  0
    5.1894    6.0109    0.0000 C   0  0
    5.1872    7.5109    0.0000 C   0  0
    5.1936    3.0093    0.0000 O   0  0
    0.0000    1.5000    0.0000 C   0  0
   -1.2990    0.7500    0.0000 C   0  0
   -1.2990   -0.7500    0.0000 C   0  0
    0.0000   -1.5000    0.0000 C   0  0
  1  2  2  0
  2  3  1  0
  3  4  2  0
  4  5  1  0
  5  6  1  0
  6  7  1  0
  7  8  1  0
  5  9  2  0
  2 10  1  0
 10 11  2  0
 11 12  1  0
 12 13  2  0
 13  1  1  0
M  END
> <Smiles>
n1c(\C=C\C(OCC)=O)cccc1

> <IC50_uM>
0.707945784

> <pIC50>
6.15

> <Activity>
1

$$$$

  SciTegic10102310092D

 12 12  0  0  0  0            999 V2000
    1.2990   -0.7500    0.0000 C   0  0
    1.2990    0.7500    0.0000 O   0  0
    0.0000    1.5000    0.0000 C   0  0
    1.3164    2.2191    0.0000 C   0  0
   -1.3163    2.2193    0.0000 C   0  0
   -1.2990    0.7500    0.0000 O   0  0
   -1.2990   -0.7500    0.0000 C   0  0
    0.0000   -1.5000    0.0000 C   0  0
   -1.2999   -2.2084    0.0000 C   0  0
   -2.5993   -1.4590    0.0000 O   0  0
    1.3002   -2.2087    0.0000 C   0  0
    1.3013   -3.7087    0.0000 O   0  0
  1  2  1  0
  2  3  1  0
  3  4  1  0
  3  5  1  0
  3  6  1  0
  6  7  1  0
  7  8  1  0
  8  1  1  0
  8  9  1  0
  9 10  1  0
  8 11  1  0
 11 12  1  0
M  END
> <Smiles>
C1OC(C)(C)OCC1(CO)CO

> <IC50_uM>
0.707945784

> <pIC50>
6.15

> <Activity>
1

$$$$

  SciTegic10102310092D

 10 11  0  0  0  0            999 V2000
    0.0000    0.0000    0.0000 C   0  0
   -1.1743   -0.9334    0.0000 S   0  0
   -2.6347   -0.6022    0.0000 C   0  0
   -3.2971    0.7528    0.0000 C   0  0
   -4.3510   -0.3011    0.0000 C   0  0
   -5.4199    0.7528    0.0000 O   0  0
   -4.3510    1.8066    0.0000 C   0  0
   -2.6347    2.1077    0.0000 C   0  0
   -1.1743    2.4389    0.0000 S   0  0
    0.0000    1.5055    0.0000 C   0  0
  1  2  1  0
  2  3  1  0
  3  4  1  0
  4  5  1  0
  5  6  1  0
  6  7  1  0
  7  4  1  0
  4  8  1  0
  8  9  1  0
  9 10  1  0
 10  1  1  0
M  END
> <Smiles>
C1SCC2(COC2)CSC1

> <IC50_uM>
0.707945784

> <pIC50>
6.15

> <Activity>
1

$$$$

  SciTegic10102310092D

 13 14  0  0  0  0            999 V2000
    1.2990   -0.7500    0.0000 C   0  0
    1.2990    0.7500    0.0000 C   0  0
    0.0000    1.5000    0.0000 N   0  0
   -1.2990    0.7500    0.0000 C   0  0  3  0  0  0
   -2.4133    1.7530    0.0000 N   0  0
   -1.8032    3.1233    0.0000 C   0  0
   -2.5532    4.4223    0.0000 C   0  0
   -0.3115    2.9665    0.0000 C   0  0
    0.6890    4.0818    0.0000 C   0  0
    2.1567    3.7722    0.0000 C   0  0
    0.2237    5.5078    0.0000 O   0  0
   -1.2990   -0.7500    0.0000 C   0  0
    0.0000   -1.5000    0.0000 C   0  0
  1  2  2  0
  2  3  1  0
  3  4  1  0
  4  5  1  4
  5  6  1  0
  6  7  1  0
  6  8  2  0
  8  3  1  0
  8  9  1  0
  9 10  1  0
  9 11  2  0
  4 12  1  0
 12 13  2  0
 13  1  1  0
M  END
> <Smiles>
C1=CN2C(NC(C)=C2C(C)=O)C=C1

> <IC50_uM>
0.707945784

> <pIC50>
6.15

> <Activity>
1

$$$$

  SciTegic10102310092D

 30 33  0  0  0  0            999 V2000
    2.5981   -1.5000    0.0000 C   0  0
    1.2990   -0.7500    0.0000 C   0  0
    1.2990    0.7500    0.0000 C   0  0
    0.0000    1.5000    0.0000 C   0  0
    0.0000    3.0008    0.0000 C   0  0
    0.0000    4.5008    0.0000 N   0  0
   -1.2990    0.7500    0.0000 C   0  0
   -1.2990   -0.7500    0.0000 C   0  0
   -2.5981   -1.5000    0.0000 C   0  0
    0.0000   -1.5000    0.0000 C   0  0
    0.0031   -3.0008    0.0000 O   0  0
    1.3039   -3.7494    0.0000 C   0  0
    2.6005   -2.9949    0.0000 N   0  0
    3.9021   -3.7404    0.0000 C   0  0
    5.2008   -2.9882    0.0000 N   0  0
    6.5021   -3.7360    0.0000 C   0  0  3  0  0  0
    7.8535   -3.1150    0.0000 C   0  0
    8.8571   -4.2297    0.0000 C   0  0
    8.1071   -5.5287    0.0000 N   0  0
    8.7175   -6.8998    0.0000 C   0  0
   10.1885   -7.1666    0.0000 C   0  0
   10.6937   -8.5790    0.0000 C   0  0
    9.7232   -9.7227    0.0000 C   0  0
    8.2475   -9.4541    0.0000 C   0  0
    7.7422   -8.0417    0.0000 C   0  0
    6.6399   -5.2168    0.0000 C   0  0
    3.9073   -5.2404    0.0000 N   0  0
    2.6108   -5.9949    0.0000 C   0  0
    1.3092   -5.2494    0.0000 C   0  0
    0.0128   -6.0039    0.0000 Br  0  0
  1  2  1  0
  2  3  2  0
  3  4  1  0
  4  5  1  0
  5  6  3  0
  4  7  2  0
  7  8  1  0
  8  9  1  0
  8 10  2  0
 10  2  1  0
 10 11  1  0
 11 12  1  0
 12 13  2  0
 13 14  1  0
 14 15  1  0
 16 15  1  4
 16 17  1  0
 17 18  1  0
 18 19  1  0
 19 20  1  0
 20 21  2  0
 21 22  1  0
 22 23  2  0
 23 24  1  0
 24 25  2  0
 25 20  1  0
 19 26  1  0
 26 16  1  0
 14 27  2  0
 27 28  1  0
 28 29  2  0
 29 12  1  0
 29 30  1  0
M  END
> <Smiles>
Cc1cc(C#N)cc(C)c1Oc1nc(NC2CCN(c3ccccc3)C2)ncc1Br

> <IC50_uM>
0.718

> <pIC50>
6.143875556

> <Activity>
1

$$$$

  SciTegic10102310092D

 42 44  0  0  0  0            999 V2000
    3.8983   -0.7512    0.0000 C   0  0
    2.5988   -1.5004    0.0000 C   0  0
    2.5983   -3.0004    0.0000 C   0  0
    3.8975   -2.2510    0.0000 C   0  0
    1.2990   -0.7500    0.0000 C   0  0
    1.2990    0.7500    0.0000 C   0  0
    0.0000    1.5000    0.0000 C   0  0
   -1.2990    0.7500    0.0000 C   0  0
   -2.5973    1.5031    0.0000 N   0  0
   -3.8999    0.7576    0.0000 C   0  0
   -5.1972    1.5121    0.0000 C   0  0
   -6.4991    0.7670    0.0000 F   0  0
   -6.4935    2.2668    0.0000 F   0  0
   -5.1920    3.0121    0.0000 F   0  0
   -2.5951    3.0039    0.0000 C   0  0
   -1.2948    3.7516    0.0000 O   0  0
   -3.8933    3.7570    0.0000 C   0  0
   -3.8912    5.2578    0.0000 C   0  0
   -5.1894    6.0109    0.0000 C   0  0
   -6.4898    5.2631    0.0000 O   0  0
   -5.1873    7.5117    0.0000 N   0  0
   -6.4855    8.2648    0.0000 C   0  0
   -7.7846    7.5148    0.0000 C   0  0
   -9.0837    8.2649    0.0000 C   0  0
   -9.0836    9.7649    0.0000 C   0  0
  -10.3833   10.5153    0.0000 C   0  0
  -11.6836    9.7674    0.0000 C   0  0
  -12.9815   10.5195    0.0000 C   0  0
  -12.9791   12.0195    0.0000 C   0  0
  -14.2761   12.7747    0.0000 O   0  0
  -14.2715   14.2755    0.0000 C   0  0
  -15.5685   15.0307    0.0000 C   0  0
  -15.5639   16.5307    0.0000 O   0  0
  -16.8700   14.2850    0.0000 O   0  0
  -11.6788   12.7674    0.0000 C   0  0
  -10.3810   12.0153    0.0000 C   0  0
   -7.7846   10.5148    0.0000 C   0  0
   -6.4856    9.7648    0.0000 C   0  0
   -5.1865   10.5148    0.0000 Cl  0  0
   -1.2990   -0.7500    0.0000 C   0  0
   -2.5981   -1.5000    0.0000 Cl  0  0
    0.0000   -1.5000    0.0000 C   0  0
  1  2  1  0
  2  3  1  0
  2  4  1  0
  2  5  1  0
  5  6  2  0
  6  7  1  0
  7  8  2  0
  8  9  1  0
  9 10  1  0
 10 11  1  0
 11 12  1  0
 11 13  1  0
 11 14  1  0
  9 15  1  0
 15 16  2  0
 15 17  1  0
 17 18  1  0
 18 19  1  0
 19 20  2  0
 19 21  1  0
 21 22  1  0
 22 23  2  0
 23 24  1  0
 24 25  2  0
 25 26  1  0
 26 27  2  0
 27 28  1  0
 28 29  2  0
 29 30  1  0
 30 31  1  0
 31 32  1  0
 32 33  2  0
 32 34  1  0
 29 35  1  0
 35 36  2  0
 36 26  1  0
 25 37  1  0
 37 38  2  0
 38 22  1  0
 38 39  1  0
  8 40  1  0
 40 41  1  0
 40 42  2  0
 42  5  1  0
M  END
> <Smiles>
CC(C)(C)c1ccc(N(CC(F)(F)F)C(=O)CCC(=O)Nc2ccc(-c3ccc(OCC(=O)O)cc3)cc2Cl)c(Cl)c1

> <IC50_uM>
0.718

> <pIC50>
6.143875556

> <Activity>
1

$$$$

  SciTegic10102310092D

 31 33  0  0  0  0            999 V2000
    2.5981   -1.5000    0.0000 C   0  0
    1.2990   -0.7500    0.0000 C   0  0
    1.2990    0.7500    0.0000 C   0  0
    0.0000    1.5000    0.0000 C   0  0
    0.0000    3.0008    0.0000 C   0  0
    0.0000    4.5008    0.0000 N   0  0
   -1.2990    0.7500    0.0000 C   0  0
   -1.2990   -0.7500    0.0000 C   0  0
   -2.5981   -1.5000    0.0000 C   0  0
    0.0000   -1.5000    0.0000 C   0  0
    0.0031   -3.0008    0.0000 O   0  0
    1.3039   -3.7494    0.0000 C   0  0
    1.3092   -5.2494    0.0000 C   0  0
    2.6108   -5.9949    0.0000 C   0  0
    3.9073   -5.2404    0.0000 N   0  0
    3.9021   -3.7404    0.0000 C   0  0
    5.1992   -2.9855    0.0000 S   0  0
    5.1936   -1.4855    0.0000 O   0  0
    6.4953   -2.2304    0.0000 O   0  0
    6.5020   -3.7306    0.0000 C   0  0
    7.7992   -2.9757    0.0000 C   0  0
    7.7935   -1.4757    0.0000 O   0  0
    9.1020   -3.7208    0.0000 N   0  0
   10.3991   -2.9659    0.0000 C   0  0
   11.7024   -3.7087    0.0000 C   0  0
   12.9972   -2.9515    0.0000 C   0  0
   12.9890   -1.4516    0.0000 C   0  0
   14.2839   -0.6944    0.0000 Cl  0  0
   11.6859   -0.7087    0.0000 C   0  0
   10.3910   -1.4658    0.0000 C   0  0
    2.6004   -2.9949    0.0000 N   0  0
  1  2  1  0
  2  3  2  0
  3  4  1  0
  4  5  1  0
  5  6  3  0
  4  7  2  0
  7  8  1  0
  8  9  1  0
  8 10  2  0
 10  2  1  0
 10 11  1  0
 11 12  1  0
 12 13  2  0
 13 14  1  0
 14 15  2  0
 15 16  1  0
 16 17  1  0
 17 18  2  0
 17 19  2  0
 17 20  1  0
 20 21  1  0
 21 22  2  0
 21 23  1  0
 23 24  1  0
 24 25  2  0
 25 26  1  0
 26 27  2  0
 27 28  1  0
 27 29  1  0
 29 30  2  0
 30 24  1  0
 16 31  2  0
 31 12  1  0
M  END
> <Smiles>
Cc1cc(C#N)cc(C)c1Oc1ccnc(S(=O)(=O)CC(=O)Nc2ccc(Cl)cc2)n1

> <IC50_uM>
0.72

> <pIC50>
6.142667504

> <Activity>
1

$$$$

  SciTegic10102310092D

 28 29  0  0  0  0            999 V2000
    3.8983   -0.7566    0.0000 C   0  0
    2.5973   -1.5031    0.0000 C   0  0
    1.2990   -0.7500    0.0000 C   0  0
    1.2990    0.7500    0.0000 C   0  0
    2.5981    1.5000    0.0000 C   0  0
    0.0000    1.5000    0.0000 N   0  0
   -1.2990    0.7500    0.0000 C   0  0
   -2.5981    1.5000    0.0000 O   0  0
   -1.2990   -0.7500    0.0000 C   0  0
   -2.5972   -1.5031    0.0000 N   0  0
   -2.5951   -3.0039    0.0000 C   0  0
   -1.2948   -3.7517    0.0000 O   0  0
   -3.8933   -3.7570    0.0000 C   0  0
   -3.8912   -5.2578    0.0000 N   0  0
   -5.1894   -6.0109    0.0000 C   0  0
   -6.4897   -5.2632    0.0000 O   0  0
   -5.1872   -7.5117    0.0000 C   0  0
   -6.4847   -8.2644    0.0000 N   0  0
    0.0000   -1.5000    0.0000 C   0  0
    0.0031   -3.0008    0.0000 C   0  0
    1.3039   -3.7494    0.0000 C   0  0
    1.3092   -5.2494    0.0000 C   0  0
    2.6108   -5.9949    0.0000 C   0  0
    2.6160   -7.4949    0.0000 C   0  0
    3.9073   -5.2404    0.0000 C   0  0
    3.9021   -3.7404    0.0000 C   0  0
    5.1985   -2.9859    0.0000 C   0  0
    2.6004   -2.9949    0.0000 C   0  0
  1  2  1  0
  2  3  1  0
  3  4  2  0
  4  5  1  0
  4  6  1  0
  6  7  2  0
  7  8  1  0
  7  9  1  0
  9 10  1  0
 10 11  1  0
 11 12  2  0
 11 13  1  0
 13 14  1  0
 14 15  1  0
 15 16  2  0
 15 17  1  0
 17 18  1  0
  9 19  2  0
 19  3  1  0
 19 20  1  0
 20 21  1  0
 21 22  2  0
 22 23  1  0
 23 24  1  0
 23 25  2  0
 25 26  1  0
 26 27  1  0
 26 28  2  0
 28 21  1  0
M  END
> <Smiles>
CCc1c(C)nc(O)c(NC(=O)CNC(=O)CN)c1Cc1cc(C)cc(C)c1

> <IC50_uM>
0.72

> <pIC50>
6.142667504

> <Activity>
1

$$$$

  SciTegic10102310092D

 29 32  0  0  0  0            999 V2000
   -0.6923   -4.0811    0.0000 C   0  0
    0.3114   -2.9665    0.0000 C   0  0
    1.8032   -3.1233    0.0000 N   0  0
    2.4133   -1.7530    0.0000 C   0  0
    3.8794   -1.4442    0.0000 C   0  0
    4.8823   -2.5608    0.0000 C   0  0
    6.3509   -2.2515    0.0000 C   0  0
    7.3538   -3.3681    0.0000 C   0  0
    8.8224   -3.0588    0.0000 C   0  0
    9.8253   -4.1753    0.0000 C   0  0
   11.2939   -3.8660    0.0000 C   0  0
   11.7596   -2.4402    0.0000 O   0  0
   12.2967   -4.9826    0.0000 C   0  0
   13.7650   -4.6756    0.0000 C   0  0
   14.7651   -5.7936    0.0000 C   0  0
   14.2969   -7.2187    0.0000 C   0  0
   12.8286   -7.5258    0.0000 C   0  0
   11.8286   -6.4078    0.0000 C   0  0
    1.2990   -0.7500    0.0000 N   0  0
    1.2990    0.7500    0.0000 N   0  0
    0.0000    1.5000    0.0000 C   0  0
    0.0000    3.0008    0.0000 N   0  0
    1.2121    3.8625    0.0000 C   0  0
    0.7463    5.2884    0.0000 C   0  0
   -0.7537    5.2860    0.0000 N   0  0
   -1.2149    3.8587    0.0000 N   0  0
   -1.2990    0.7500    0.0000 C   0  0
   -1.2990   -0.7500    0.0000 C   0  0
    0.0000   -1.5000    0.0000 C   0  0
  1  2  1  0
  2  3  1  0
  3  4  2  0
  4  5  1  0
  5  6  1  0
  6  7  1  0
  7  8  1  0
  8  9  1  0
  9 10  1  0
 10 11  1  0
 11 12  2  0
 11 13  1  0
 13 14  2  0
 14 15  1  0
 15 16  2  0
 16 17  1  0
 17 18  2  0
 18 13  1  0
  4 19  1  0
 19 20  1  0
 20 21  2  0
 21 22  1  0
 22 23  1  0
 23 24  2  0
 24 25  1  0
 25 26  2  0
 26 22  1  0
 21 27  1  0
 27 28  2  0
 28 29  1  0
 29  2  2  0
 29 19  1  0
M  END
> <Smiles>
Cc1nc(CCCCCCC(=O)c2ccccc2)n2nc(-n3ccnn3)ccc12

> <IC50_uM>
0.72

> <pIC50>
6.142667504

> <Activity>
1

$$$$

  SciTegic10102310092D

 13 14  0  0  0  0            999 V2000
    2.6003   -1.4977    0.0000 C   0  0
    1.2990   -0.7500    0.0000 N   0  0
    1.2990    0.7500    0.0000 C   0  0
    0.0000    1.5000    0.0000 N   0  0
   -1.2990    0.7500    0.0000 C   0  0
   -2.5981    1.5000    0.0000 O   0  0
   -1.2990   -0.7500    0.0000 C   0  0
   -2.4133   -1.7530    0.0000 C   0  0
   -1.8032   -3.1233    0.0000 O   0  0
   -0.3114   -2.9665    0.0000 N   0  0
    0.0000   -1.5000    0.0000 C   0  0
    2.5981    1.5000    0.0000 O   0  0
    3.8983   -0.7459    0.0000 C   0  0
  1  2  1  0
  2  3  1  0
  3  4  1  0
  4  5  1  0
  5  6  2  0
  5  7  1  0
  7  8  2  0
  8  9  1  0
  9 10  1  0
  7 11  1  0
 11  2  1  0
 11 10  2  0
  3 12  2  0
  1 13  1  0
M  END
> <Smiles>
C(N1C(NC(=O)c(con2)c12)=O)C

> <IC50_uM>
0.72443596

> <pIC50>
6.14

> <Activity>
1

$$$$

  SciTegic10102310092D

 13 14  0  0  0  0            999 V2000
   -0.6923   -4.0811    0.0000 O   0  0
    0.3114   -2.9665    0.0000 C   0  0
    1.8032   -3.1233    0.0000 N   0  0
    2.4133   -1.7530    0.0000 C   0  0
    3.8805   -1.4410    0.0000 O   0  0
    1.2990   -0.7500    0.0000 C   0  0  3  0  0  0
    1.2990    0.7500    0.0000 C   0  0
    0.0000    1.5000    0.0000 N   0  0
   -1.2990    0.7500    0.0000 C   0  0
   -2.5981    1.5000    0.0000 O   0  0
   -1.2990   -0.7500    0.0000 C   0  0
    2.5981    1.5000    0.0000 O   0  0
    0.0000   -1.5000    0.0000 C   0  0  3  0  0  0
  1  2  2  0
  2  3  1  0
  3  4  1  0
  4  5  2  0
  6  4  1  4
  6  7  1  0
  7  8  1  0
  8  9  1  0
  9 10  2  0
  9 11  1  0
  7 12  2  0
  6 13  1  0
 13  2  1  0
 13 11  1  4
M  END
> <Smiles>
O=C1NC(=O)C(C(NC(=O)C2)=O)C12

> <IC50_uM>
0.72443596

> <pIC50>
6.14

> <Activity>
1

$$$$

  SciTegic10102310092D

 13 13  0  0  0  0            999 V2000
    1.2990   -0.7500    0.0000 C   0  0
    2.5981   -1.5000    0.0000 O   0  0
    1.2990    0.7500    0.0000 C   0  0
    2.5972    1.5031    0.0000 N   0  0
    2.5951    3.0039    0.0000 C   0  0
    1.2948    3.7517    0.0000 C   0  0
    3.8926    3.7566    0.0000 O   0  0
    0.0000    1.5000    0.0000 C   0  0
   -0.0031    3.0008    0.0000 N   0  0
   -1.3032    3.7490    0.0000 C   0  0
   -1.2990    0.7500    0.0000 C   0  0
   -1.2990   -0.7500    0.0000 C   0  0
    0.0000   -1.5000    0.0000 N   0  0
  1  2  1  0
  1  3  2  0
  3  4  1  0
  4  5  1  0
  5  6  1  0
  5  7  2  0
  3  8  1  0
  8  9  1  0
  9 10  1  0
  8 11  2  0
 11 12  1  0
 12 13  2  0
 13  1  1  0
M  END
> <Smiles>
c1(O)c(NC(C)=O)c(NC)ccn1

> <IC50_uM>
0.72443596

> <pIC50>
6.14

> <Activity>
1

$$$$

  SciTegic10102310092D

 13 13  0  0  0  0            999 V2000
    0.7500   -1.0323    0.0000 C   0  0
    1.2135    0.3943    0.0000 C   0  0  3  0  0  0
    1.5021    1.8663    0.0000 O   0  0
    2.3029   -0.6186    0.0000 C   0  0
    1.9914   -2.0867    0.0000 O   0  0
    3.1059   -3.0907    0.0000 C   0  0
    3.7294   -0.1549    0.0000 O   0  0
    0.0000    1.2760    0.0000 C   0  0
   -0.0031    2.7742    0.0000 C   0  0
   -1.3033    3.5223    0.0000 C   0  0
   -1.2135    0.3943    0.0000 C   0  0
   -0.7500   -1.0323    0.0000 C   0  0  3  0  0  0
   -1.6317   -2.2458    0.0000 C   0  0
  1  2  1  0
  2  3  1  4
  2  4  1  0
  4  5  1  0
  5  6  1  0
  4  7  2  0
  2  8  1  0
  8  9  1  0
  9 10  2  0
  8 11  2  0
 11 12  1  0
 12  1  1  0
 12 13  1  4
M  END
> <Smiles>
C1C(O)(C(OC)=O)C(C=C)=CC1C

> <IC50_uM>
0.72443596

> <pIC50>
6.14

> <Activity>
1

$$$$

  SciTegic10102310092D

 13 12  0  0  0  0            999 V2000
    0.0007    0.0004    0.0000 C   0  0
    1.3000    0.7500    0.0000 C   0  0
    2.6000    1.5000    0.0000 C   0  0
    3.9000    0.7500    0.0000 N   0  0
    5.2000    1.5000    0.0000 C   0  0
    6.5000    0.7500    0.0000 N   0  0
    6.5000   -0.7500    0.0000 C   0  0
    7.7999    1.5000    0.0000 C   0  0
    9.0999    0.7500    0.0000 C   0  0
   10.3992    0.0004    0.0000 C   0  0
    5.2000    3.0000    0.0000 O   0  0
    3.8969   -0.7508    0.0000 N   0  0
    2.5968   -1.4990    0.0000 O   0  0
  1  2  3  0
  2  3  1  0
  3  4  1  0
  4  5  1  0
  5  6  1  0
  6  7  1  0
  6  8  1  0
  8  9  1  0
  9 10  3  0
  5 11  2  0
  4 12  1  0
 12 13  2  0
M  END
> <Smiles>
C#CCN(C(N(C)CC#C)=O)N=O

> <IC50_uM>
0.72443596

> <pIC50>
6.14

> <Activity>
1

$$$$

  SciTegic10102310092D

 13 13  0  0  0  0            999 V2000
    7.2135   -1.3099    0.0000 N   0  0
    5.7135   -1.3069    0.0000 C   0  0
    4.2127   -1.3038    0.0000 C   0  0
    3.4641   -0.0030    0.0000 C   0  0
    1.9598    0.0000    0.0000 N   0  0
    1.3858    1.3858    0.0000 C   0  0
    0.0000    1.9598    0.0000 C   0  0
   -1.3858    1.3858    0.0000 C   0  0
   -1.9598    0.0000    0.0000 C   0  0
   -1.3858   -1.3858    0.0000 C   0  0
    0.0000   -1.9598    0.0000 C   0  0
    1.3858   -1.3858    0.0000 C   0  0
    4.2164    1.2947    0.0000 O   0  0
  1  2  3  0
  2  3  1  0
  3  4  1  0
  4  5  1  0
  5  6  1  0
  6  7  1  0
  7  8  1  0
  8  9  1  0
  9 10  1  0
 10 11  1  0
 11 12  1  0
 12  5  1  0
  4 13  2  0
M  END
> <Smiles>
N#CCC(N1CCCCCCC1)=O

> <IC50_uM>
0.72443596

> <pIC50>
6.14

> <Activity>
1

$$$$

  SciTegic10102310092D

 13 13  0  0  0  0            999 V2000
    7.2135   -1.3099    0.0000 N   0  0
    5.7135   -1.3069    0.0000 C   0  0
    4.2127   -1.3038    0.0000 C   0  0
    3.4641   -0.0030    0.0000 C   0  0
    1.9598    0.0000    0.0000 N   0  0
    1.3858    1.3858    0.0000 C   0  0
    0.0000    1.9598    0.0000 C   0  0
   -1.3858    1.3858    0.0000 C   0  0
   -1.9598    0.0000    0.0000 O   0  0
   -1.3858   -1.3858    0.0000 C   0  0
    0.0000   -1.9598    0.0000 C   0  0
    1.3858   -1.3858    0.0000 C   0  0
    4.2164    1.2947    0.0000 O   0  0
  1  2  3  0
  2  3  1  0
  3  4  1  0
  4  5  1  0
  5  6  1  0
  6  7  1  0
  7  8  1  0
  8  9  1  0
  9 10  1  0
 10 11  1  0
 11 12  1  0
 12  5  1  0
  4 13  2  0
M  END
> <Smiles>
N#CCC(N1CCCOCCC1)=O

> <IC50_uM>
0.72443596

> <pIC50>
6.14

> <Activity>
1

$$$$

  SciTegic10102310092D

 13 13  0  0  0  0            999 V2000
    0.7500   -1.0323    0.0000 C   0  0
    1.6281   -2.2462    0.0000 N   0  0
    1.0157   -3.6164    0.0000 C   0  0
    1.8954   -4.8324    0.0000 C   0  0
    1.2830   -6.2026    0.0000 C   0  0
    2.1626   -7.4186    0.0000 C   0  0
    3.6547   -7.2645    0.0000 O   0  0
    1.5505   -8.7881    0.0000 O   0  0
   -0.4763   -3.7706    0.0000 O   0  0
    1.2135    0.3943    0.0000 N   0  0
    0.0000    1.2760    0.0000 N   0  0
   -1.2135    0.3943    0.0000 C   0  0
   -0.7500   -1.0323    0.0000 N   0  0
  1  2  1  0
  2  3  1  0
  3  4  1  0
  4  5  2  0
  5  6  1  0
  6  7  1  0
  6  8  2  0
  3  9  2  0
  1 10  1  0
 10 11  1  0
 11 12  2  0
 12 13  1  0
 13  1  2  0
M  END
> <Smiles>
c1(NC(\C=C\C(O)=O)=O)[nH]ncn1

> <IC50_uM>
0.72443596

> <pIC50>
6.14

> <Activity>
1

$$$$

  SciTegic10102310092D

 13 13  0  0  0  0            999 V2000
    1.2990   -0.7500    0.0000 C   0  0
    1.2990    0.7500    0.0000 C   0  0
    2.5972    1.5031    0.0000 C   0  0
    2.5951    3.0039    0.0000 N   0  0
    3.8926    3.7566    0.0000 O   0  0
    0.0000    1.5000    0.0000 C   0  0
   -1.2990    0.7500    0.0000 C   0  0
   -1.2990   -0.7500    0.0000 C   0  0
   -2.6003   -1.4978    0.0000 O   0  0
   -3.8983   -0.7459    0.0000 C   0  0
    0.0000   -1.5000    0.0000 C   0  0
    0.0031   -3.0008    0.0000 O   0  0
    1.3032   -3.7490    0.0000 C   0  0
  1  2  2  0
  2  3  1  0
  3  4  2  0
  4  5  1  0
  2  6  1  0
  6  7  2  0
  7  8  1  0
  8  9  1  0
  9 10  1  0
  8 11  2  0
 11  1  1  0
 11 12  1  0
 12 13  1  0
M  END
> <Smiles>
c1c(\C=N\O)ccc(OC)c1OC

> <IC50_uM>
0.72443596

> <pIC50>
6.14

> <Activity>
1

$$$$

  SciTegic10102310092D

 12 13  0  0  0  0            999 V2000
    1.6852   -0.3846    0.0000 C   0  0
    3.1476   -0.7184    0.0000 O   0  0
    1.3514    1.0778    0.0000 C   0  0
    2.3882    2.1623    0.0000 S   0  0
    1.6774    3.4832    0.0000 C   0  0
    0.2015    3.2154    0.0000 C   0  0
    0.0000    1.7286    0.0000 C   0  0
   -1.3515    1.0777    0.0000 N   0  0
   -1.6852   -0.3847    0.0000 C   0  0
   -3.1476   -0.7184    0.0000 O   0  0
   -0.7500   -1.5574    0.0000 C   0  0
    0.7500   -1.5574    0.0000 C   0  0
  1  2  2  0
  1  3  1  0
  3  4  1  0
  4  5  1  0
  5  6  2  0
  3  7  2  0
  7  6  1  0
  7  8  1  0
  8  9  1  0
  9 10  2  0
  9 11  1  0
 11 12  1  0
 12  1  1  0
M  END
> <Smiles>
C1(=O)c(scc2)c2NC(=O)CC1

> <IC50_uM>
0.72443596

> <pIC50>
6.14

> <Activity>
1

$$$$

  SciTegic10102310092D

 13 13  0  0  0  0            999 V2000
    1.2990   -0.7500    0.0000 C   0  0
    2.5973   -1.5031    0.0000 C   0  0
    2.5951   -3.0039    0.0000 C   0  0
    3.8933   -3.7570    0.0000 C   0  0
    3.8912   -5.2570    0.0000 C   0  0
    3.8976   -0.7553    0.0000 O   0  0
    1.2990    0.7500    0.0000 C   0  0
    0.0000    1.5000    0.0000 N   0  0
    0.0000    3.0000    0.0000 C   0  0
   -1.2990    0.7500    0.0000 C   0  0
   -2.5981    1.5000    0.0000 O   0  0
   -1.2990   -0.7500    0.0000 C   0  0
    0.0000   -1.5000    0.0000 C   0  0
  1  2  1  0
  2  3  1  0
  3  4  1  0
  4  5  1  0
  2  6  2  0
  1  7  2  0
  7  8  1  0
  8  9  1  0
  8 10  1  0
 10 11  2  0
 10 12  1  0
 12 13  2  0
 13  1  1  0
M  END
> <Smiles>
C1(C(CCC)=O)=CN(C)C(=O)C=C1

> <IC50_uM>
0.72443596

> <pIC50>
6.14

> <Activity>
1

$$$$

  SciTegic10102310092D

 13 14  0  0  0  0            999 V2000
    0.9488    0.0000    0.0000 C   0  0  3  0  0  0
    0.2780    0.7417    0.0000 O   0  0
    2.4354    0.1995    0.0000 C   0  0
    1.8975   -0.8028    0.0000 C   0  0
    1.6421    0.6933    0.0000 C   0  0
    0.0000    0.6568    0.0000 C   0  0  3  0  0  0
    0.9335   -0.5217    0.0000 C   0  0
    1.8676   -1.6954    0.0000 N   0  0
   -0.6568   -0.6386    0.0000 C   0  0
   -1.8063   -1.3319    0.0000 C   0  0
   -1.0947    1.4779    0.0000 C   0  0  3  0  0  0
   -0.8393    0.0000    0.0000 C   0  0  3  0  0  0
   -1.8778    2.7573    0.0000 O   0  0
  1  2  1  4
  1  3  1  0
  1  4  1  0
  4  5  1  0
  5  6  1  0
  6  7  1  4
  7  8  3  0
  6  9  1  0
  9 10  1  0
  6 11  1  0
 11 12  1  0
 12  1  1  0
 12 10  1  4
 11 13  1  4
M  END
> <Smiles>
C1(O)(C)CCC(C#N)(CC2)C(C12)O

> <IC50_uM>
0.72443596

> <pIC50>
6.14

> <Activity>
1

$$$$

  SciTegic10102310092D

 11 11  0  0  0  0            999 V2000
    2.5800    0.0305    0.0000 C   0  0
    1.2990   -0.7500    0.0000 C   0  0
    1.2990    0.7500    0.0000 C   0  0
    0.0000    1.5000    0.0000 O   0  0
   -1.2990    0.7500    0.0000 P   0  0
   -2.5625   -0.0216    0.0000 O   0  0
   -2.5631   -1.5216    0.0000 C   0  0
   -1.2623    2.2495    0.0000 O   0  0
   -1.2990   -0.7500    0.0000 O   0  0
    0.0000   -1.5000    0.0000 C   0  0
    1.2638   -2.2496    0.0000 C   0  0
  1  2  1  0
  2  3  1  0
  3  4  1  0
  4  5  1  0
  5  6  1  0
  6  7  1  0
  5  8  2  0
  5  9  1  0
  9 10  1  0
 10  2  1  0
  2 11  1  0
M  END
> <Smiles>
CC1(COP(OC)(=O)OC1)C

> <IC50_uM>
0.72443596

> <pIC50>
6.14

> <Activity>
1

$$$$

  SciTegic10102310092D

 31 33  0  0  0  0            999 V2000
    2.5981   -1.5000    0.0000 C   0  0
    1.2990   -0.7500    0.0000 C   0  0
    1.2990    0.7500    0.0000 C   0  0
    0.0000    1.5000    0.0000 C   0  0
    0.0000    3.0008    0.0000 C   0  0
    0.0000    4.5008    0.0000 N   0  0
   -1.2990    0.7500    0.0000 C   0  0
   -1.2990   -0.7500    0.0000 C   0  0
   -2.5981   -1.5000    0.0000 C   0  0
    0.0000   -1.5000    0.0000 C   0  0
    0.0031   -3.0008    0.0000 O   0  0
    1.3039   -3.7494    0.0000 C   0  0
    1.3092   -5.2494    0.0000 C   0  0
    2.6108   -5.9949    0.0000 C   0  0
    3.9073   -5.2404    0.0000 N   0  0
    3.9021   -3.7404    0.0000 C   0  0
    5.1992   -2.9855    0.0000 S   0  0
    5.1936   -1.4855    0.0000 O   0  0
    6.4953   -2.2304    0.0000 O   0  0
    6.5020   -3.7306    0.0000 C   0  0
    7.7992   -2.9757    0.0000 C   0  0
    7.7935   -1.4757    0.0000 O   0  0
    9.1020   -3.7208    0.0000 N   0  0
   10.3991   -2.9659    0.0000 C   0  0
   11.7024   -3.7087    0.0000 C   0  0
   12.9972   -2.9515    0.0000 C   0  0
   12.9890   -1.4516    0.0000 C   0  0
   14.2839   -0.6944    0.0000 Br  0  0
   11.6859   -0.7087    0.0000 C   0  0
   10.3910   -1.4658    0.0000 C   0  0
    2.6004   -2.9949    0.0000 N   0  0
  1  2  1  0
  2  3  2  0
  3  4  1  0
  4  5  1  0
  5  6  3  0
  4  7  2  0
  7  8  1  0
  8  9  1  0
  8 10  2  0
 10  2  1  0
 10 11  1  0
 11 12  1  0
 12 13  2  0
 13 14  1  0
 14 15  2  0
 15 16  1  0
 16 17  1  0
 17 18  2  0
 17 19  2  0
 17 20  1  0
 20 21  1  0
 21 22  2  0
 21 23  1  0
 23 24  1  0
 24 25  2  0
 25 26  1  0
 26 27  2  0
 27 28  1  0
 27 29  1  0
 29 30  2  0
 30 24  1  0
 16 31  2  0
 31 12  1  0
M  END
> <Smiles>
Cc1cc(C#N)cc(C)c1Oc1ccnc(S(=O)(=O)CC(=O)Nc2ccc(Br)cc2)n1

> <IC50_uM>
0.728

> <pIC50>
6.137868621

> <Activity>
1

$$$$

  SciTegic10102310092D

 30 34  0  0  1  0            999 V2000
    2.5981   -1.5000    0.0000 C   0  0
    1.2990   -0.7500    0.0000 C   0  0  1  0  0  0
    1.2990    0.7500    0.0000 C   0  0  2  0  0  0
    2.5981    1.5000    0.0000 C   0  0
    0.0000    1.5000    0.0000 O   0  0
   -1.2990    0.7500    0.0000 C   0  0
   -2.5981    1.5000    0.0000 C   0  0
   -3.8971    0.7500    0.0000 C   0  0
   -3.8971   -0.7500    0.0000 C   0  0
   -5.1962   -1.5000    0.0000 C   0  0
   -6.4958   -0.7497    0.0000 C   0  0
   -6.4983    0.7504    0.0000 C   0  0
   -7.7986    1.4983    0.0000 C   0  0
   -9.0964    0.7462    0.0000 C   0  0
   -9.0940   -0.7538    0.0000 C   0  0
   -7.7938   -1.5017    0.0000 C   0  0
   -5.1961   -3.0000    0.0000 C   0  0
   -3.8971   -3.7500    0.0000 C   0  0
   -3.8971   -5.2500    0.0000 O   0  0
   -2.5981   -3.0000    0.0000 O   0  0
   -2.5981   -1.5000    0.0000 C   0  0
   -1.2990   -0.7500    0.0000 C   0  0
    0.0000   -1.5000    0.0000 C   0  0  1  0  0  0
    0.0000   -3.0000    0.0000 O   0  0
   -5.1962    1.5000    0.0000 O   0  0
   -5.1962    3.0000    0.0000 C   0  0
   -6.4771    2.2195    0.0000 C   0  0
   -5.1610    4.4996    0.0000 C   0  0
   -3.8971    3.7500    0.0000 C   0  0
   -2.5981    3.0000    0.0000 C   0  0
  2  1  1  6
  2  3  1  0
  3  4  1  1
  3  5  1  0
  5  6  1  0
  6  7  2  0
  7  8  1  0
  8  9  2  0
  9 10  1  0
 10 11  1  0
 11 12  2  0
 12 13  1  0
 13 14  2  0
 14 15  1  0
 15 16  2  0
 16 11  1  0
 10 17  2  0
 17 18  1  0
 18 19  2  0
 18 20  1  0
 20 21  1  0
 21  9  1  0
 21 22  2  0
 22  6  1  0
 22 23  1  0
 23  2  1  0
 23 24  1  6
  8 25  1  0
 25 26  1  0
 26 27  1  0
 26 28  1  0
 26 29  1  0
 29 30  2  0
 30  7  1  0
M  END
> <Smiles>
C[C@H]1[C@H](C)Oc2c3c(c4c(-c5ccccc5)cc(=O)oc4c2[C@H]1O)OC(C)(C)C=C3

> <IC50_uM>
0.73

> <pIC50>
6.13667714

> <Activity>
1

$$$$

  SciTegic10102310092D

 35 38  0  0  0  0            999 V2000
    2.5981   -1.5000    0.0000 C   0  0
    1.2990   -0.7500    0.0000 C   0  0
    1.2990    0.7500    0.0000 C   0  0
    0.0000    1.5000    0.0000 C   0  0
   -1.2990    0.7500    0.0000 C   0  0
   -2.5987    1.5004    0.0000 N   0  0
   -3.9492    0.8772    0.0000 N   0  0
   -4.9546    1.9903    0.0000 N   0  0
   -4.2067    3.2905    0.0000 C   0  0
   -2.7390    2.9810    0.0000 C   0  0
   -1.6216    3.9790    0.0000 S   0  0
   -1.9268    5.4485    0.0000 C   0  0
   -0.8074    6.4482    0.0000 C   0  0
    0.6172    5.9785    0.0000 O   0  0
   -1.1126    7.9177    0.0000 N   0  0
    0.0068    8.9174    0.0000 C   0  0
    1.4306    8.4453    0.0000 C   0  0
    2.5514    9.4422    0.0000 C   0  0
    2.2485   10.9113    0.0000 C   0  0
    3.3698   11.9087    0.0000 C   0  0
    4.7944   11.4389    0.0000 C   0  0
    5.9136   12.4375    0.0000 C   0  0
    5.6083   13.9061    0.0000 C   0  0
    6.7261   14.9077    0.0000 C   0  0
    6.4186   16.3767    0.0000 C   0  0
    7.5357   17.3777    0.0000 O   0  0
    4.9933   16.8441    0.0000 O   0  0
    4.1839   14.3761    0.0000 C   0  0
    3.0646   13.3774    0.0000 C   0  0
    0.8247   11.3835    0.0000 C   0  0
   -0.2961   10.3866    0.0000 C   0  0
   -1.7198   10.8588    0.0000 Cl  0  0
   -1.2990   -0.7500    0.0000 C   0  0
   -2.5981   -1.5000    0.0000 Cl  0  0
    0.0000   -1.5000    0.0000 C   0  0
  1  2  1  0
  2  3  2  0
  3  4  1  0
  4  5  2  0
  5  6  1  0
  6  7  1  0
  7  8  2  0
  8  9  1  0
  9 10  2  0
 10  6  1  0
 10 11  1  0
 11 12  1  0
 12 13  1  0
 13 14  2  0
 13 15  1  0
 15 16  1  0
 16 17  2  0
 17 18  1  0
 18 19  2  0
 19 20  1  0
 20 21  2  0
 21 22  1  0
 22 23  2  0
 23 24  1  0
 24 25  1  0
 25 26  2  0
 25 27  1  0
 23 28  1  0
 28 29  2  0
 29 20  1  0
 19 30  1  0
 30 31  2  0
 31 16  1  0
 31 32  1  0
  5 33  1  0
 33 34  1  0
 33 35  2  0
 35  2  1  0
M  END
> <Smiles>
Cc1ccc(-n2nncc2SCC(=O)Nc2ccc(-c3ccc(CC(=O)O)cc3)cc2Cl)c(Cl)c1

> <IC50_uM>
0.73

> <pIC50>
6.13667714

> <Activity>
1

$$$$

  SciTegic10102310092D

 28 31  0  0  0  0            999 V2000
    4.6376   -7.8561    0.0000 N   0  0
    3.6376   -8.9741    0.0000 C   0  0
    2.6370  -10.0928    0.0000 C   0  0
    3.1053  -11.5178    0.0000 C   0  0
    2.1052  -12.6358    0.0000 C   0  0
    2.5735  -14.0609    0.0000 Cl  0  0
    0.6370  -12.3288    0.0000 C   0  0
    0.1687  -10.9038    0.0000 C   0  0
   -1.2997  -10.5936    0.0000 O   0  0
   -1.7662   -9.1671    0.0000 C   0  0
   -0.7624   -8.0525    0.0000 C   0  0
   -1.2256   -6.6258    0.0000 C   0  0
   -0.2234   -5.5086    0.0000 O   0  0
   -0.6890   -4.0818    0.0000 C   0  0
    0.3114   -2.9665    0.0000 C   0  0
    1.8032   -3.1233    0.0000 N   0  0
    2.4133   -1.7530    0.0000 N   0  0
    1.2990   -0.7500    0.0000 C   0  0
    1.2990    0.7500    0.0000 C   0  0
    0.0000    1.5000    0.0000 C   0  0
   -1.2990    0.7500    0.0000 C   0  0
   -1.2990   -0.7500    0.0000 N   0  0
    0.0000   -1.5000    0.0000 C   0  0
   -2.6928   -6.3138    0.0000 C   0  0
   -3.6967   -7.4283    0.0000 C   0  0
   -3.2334   -8.8550    0.0000 C   0  0
   -4.2373   -9.9695    0.0000 Cl  0  0
    1.1688   -9.7857    0.0000 C   0  0
  1  2  3  0
  2  3  1  0
  3  4  2  0
  4  5  1  0
  5  6  1  0
  5  7  2  0
  7  8  1  0
  8  9  1  0
  9 10  1  0
 10 11  2  0
 11 12  1  0
 12 13  1  0
 13 14  1  0
 14 15  1  0
 15 16  2  0
 16 17  1  0
 17 18  1  0
 18 19  2  0
 19 20  1  0
 20 21  2  0
 21 22  1  0
 22 23  2  0
 23 15  1  0
 23 18  1  0
 12 24  2  0
 24 25  1  0
 25 26  2  0
 26 10  1  0
 26 27  1  0
  8 28  2  0
 28  3  1  0
M  END
> <Smiles>
N#Cc1cc(Cl)cc(Oc2cc(OCc3n[nH]c4cccnc34)ccc2Cl)c1

> <IC50_uM>
0.74

> <pIC50>
6.13076828

> <Activity>
1

$$$$

  SciTegic10102310092D

 24 25  0  0  0  0            999 V2000
    3.8912   -5.2570    0.0000 C   0  0
    3.8933   -3.7570    0.0000 C   0  0
    2.5951   -3.0039    0.0000 C   0  0
    2.5973   -1.5031    0.0000 N   0  0
    3.8976   -0.7553    0.0000 C   0  0
    1.2990   -0.7500    0.0000 C   0  0
    1.2990    0.7500    0.0000 N   0  0
    0.0000    1.5000    0.0000 C   0  0
    0.0031    3.0008    0.0000 C   0  0  3  0  0  0
   -1.2938    3.7562    0.0000 O   0  0
   -1.2891    5.2562    0.0000 C   0  0
    1.3039    3.7494    0.0000 C   0  0
    1.3092    5.2494    0.0000 C   0  0
    0.0127    6.0039    0.0000 Cl  0  0
    2.6108    5.9949    0.0000 C   0  0
    3.9072    5.2405    0.0000 C   0  0
    3.9020    3.7405    0.0000 C   0  0
    2.6004    2.9949    0.0000 C   0  0
    2.5953    1.4950    0.0000 Cl  0  0
   -1.2990    0.7500    0.0000 C   0  0
   -2.5981    1.5000    0.0000 C   0  0
   -1.2990   -0.7500    0.0000 C   0  0
   -2.5981   -1.5000    0.0000 O   0  0
    0.0000   -1.5000    0.0000 N   0  0
  1  2  1  0
  2  3  1  0
  3  4  1  0
  4  5  1  0
  4  6  1  0
  6  7  2  0
  7  8  1  0
  8  9  1  0
  9 10  1  4
 10 11  1  0
  9 12  1  0
 12 13  2  0
 13 14  1  0
 13 15  1  0
 15 16  2  0
 16 17  1  0
 17 18  2  0
 18 12  1  0
 18 19  1  0
  8 20  2  0
 20 21  1  0
 20 22  1  0
 22 23  2  0
 22 24  1  0
 24  6  1  0
M  END
> <Smiles>
CCCN(C)c1nc(C(OC)c2c(Cl)cccc2Cl)c(C)c(=O)[nH]1

> <IC50_uM>
0.74

> <pIC50>
6.13076828

> <Activity>
1

$$$$

  SciTegic10102310092D

 13 13  0  0  0  0            999 V2000
    3.4598    0.0000    0.0000 C   0  0
    1.9598    0.0000    0.0000 C   0  0
    1.3858    1.3858    0.0000 C   0  0
    0.0000    1.9598    0.0000 N   0  0
   -1.3858    1.3858    0.0000 C   0  0
   -1.9598    0.0000    0.0000 C   0  0
   -1.3858   -1.3858    0.0000 C   0  0
   -2.4465   -2.4465    0.0000 O   0  0
    0.0000   -1.9598    0.0000 N   0  0
    1.3858   -1.3858    0.0000 C   0  0
    2.4465   -2.4465    0.0000 O   0  0
   -2.4465    2.4465    0.0000 O   0  0
    2.4465    2.4465    0.0000 O   0  0
  1  2  1  0
  2  3  1  0
  3  4  1  0
  4  5  1  0
  5  6  1  0
  6  7  1  0
  7  8  2  0
  7  9  1  0
  9 10  1  0
 10  2  1  0
 10 11  2  0
  5 12  2  0
  3 13  2  0
M  END
> <Smiles>
CC1C(NC(CC(=O)NC1=O)=O)=O

> <IC50_uM>
0.741310241

> <pIC50>
6.13

> <Activity>
1

$$$$

  SciTegic10102310092D

 14 17  0  0  0  0            999 V2000
    1.2990   -0.7500    0.0000 C   0  0
    2.5981   -1.5000    0.0000 O   0  0
    1.2990    0.7500    0.0000 C   0  0  3  0  0  0
    2.0478    2.0470    0.0000 C   0  0  3  0  0  0
    0.7488    2.7970    0.0000 C   0  0  3  0  0  0
    1.9702    3.5672    0.0000 C   0  0  3  0  0  0
    3.4670    3.6653    0.0000 C   0  0
    3.5651    2.1685    0.0000 C   0  0
    0.8426    4.0050    0.0000 C   0  0
    0.0000    1.5000    0.0000 C   0  0  3  0  0  0
   -1.2990    0.7500    0.0000 C   0  0
   -2.5981    1.5000    0.0000 O   0  0
   -1.2990   -0.7500    0.0000 C   0  0
    0.0000   -1.5000    0.0000 C   0  0
  1  2  2  0
  3  1  1  4
  3  4  1  0
  4  5  1  0
  4  6  1  0
  6  7  1  4
  7  8  2  0
  4  8  1  4
  6  9  1  0
  5  9  1  4
  3 10  1  0
 10  5  1  0
 10 11  1  4
 11 12  2  0
 11 13  1  0
 13 14  2  0
 14  1  1  0
M  END
> <Smiles>
C1(=O)C(C2(C34)C(C=C2)C3)C4C(=O)C=C1

> <IC50_uM>
0.741310241

> <pIC50>
6.13

> <Activity>
1

$$$$

  SciTegic10102310092D

 11 12  0  0  0  0            999 V2000
    0.3606   -4.2459    0.0000 N   0  0
    0.7488   -2.7970    0.0000 C   0  0  3  0  0  0
    2.0479   -2.0470    0.0000 C   0  0
    1.2990   -0.7500    0.0000 C   0  0
    1.2990    0.7500    0.0000 C   0  0
    0.0000    1.5000    0.0000 C   0  0
    0.0000    3.0000    0.0000 C   0  0
   -1.2990    0.7500    0.0000 C   0  0
   -1.2990   -0.7500    0.0000 C   0  0
   -2.5981   -1.5000    0.0000 C   0  0
    0.0000   -1.5000    0.0000 C   0  0
  2  1  1  4
  2  3  1  0
  3  4  1  0
  4  5  2  0
  5  6  1  0
  6  7  1  0
  6  8  2  0
  8  9  1  0
  9 10  1  0
  4 11  1  0
 11  2  1  0
 11  9  2  0
M  END
> <Smiles>
NC1Cc(cc(C)cc2C)c12

> <IC50_uM>
0.741310241

> <pIC50>
6.13

> <Activity>
1

$$$$

  SciTegic10102310092D

 13 14  0  0  0  0            999 V2000
   -5.7445   -3.2223    0.0000 C   0  0
   -4.5628   -2.3141    0.0000 C   0  0  3  0  0  0
   -3.2310   -1.9430    0.0000 C   0  0  3  0  0  0
   -3.2310    0.3930    0.0000 O   0  0
   -2.4451   -0.7641    0.0000 C   0  0  3  0  0  0
   -1.2226   -1.1134    0.0000 C   0  0
   -1.8993   -2.3141    0.0000 C   0  0
   -3.8642   -1.1134    0.0000 C   0  0  3  0  0  0
   -4.7899    0.0728    0.0000 C   0  0
   -4.2272    1.4632    0.0000 O   0  0
   -6.2754   -0.1347    0.0000 O   0  0
   -5.5470   -4.7092    0.0000 O   0  0
   -7.1311   -2.6502    0.0000 O   0  0
  2  1  1  4
  2  3  1  0
  3  4  1  4
  5  4  1  4
  5  6  1  0
  6  7  1  0
  7  3  1  0
  5  8  1  0
  8  2  1  0
  8  9  1  4
  9 10  1  0
  9 11  2  0
  1 12  1  0
  1 13  2  0
M  END
> <Smiles>
C(C1C2OC(CC2)C1C(O)=O)(O)=O

> <IC50_uM>
0.741310241

> <pIC50>
6.13

> <Activity>
1

$$$$

  SciTegic10102310092D

 13 13  0  0  0  0            999 V2000
    0.7500   -1.0323    0.0000 C   0  0
    1.2135    0.3943    0.0000 C   0  0  3  0  0  0
    1.5021    1.8663    0.0000 O   0  0
    2.3029   -0.6186    0.0000 C   0  0
    1.9914   -2.0867    0.0000 O   0  0
    3.1059   -3.0907    0.0000 C   0  0
    3.7294   -0.1549    0.0000 O   0  0
    0.0000    1.2760    0.0000 C   0  0
   -0.0031    2.7742    0.0000 C   0  0
   -1.3033    3.5223    0.0000 O   0  0
   -1.2135    0.3943    0.0000 C   0  0
   -0.7500   -1.0323    0.0000 C   0  0  3  0  0  0
   -1.6317   -2.2458    0.0000 C   0  0
  1  2  1  0
  2  3  1  4
  2  4  1  0
  4  5  1  0
  5  6  1  0
  4  7  2  0
  2  8  1  0
  8  9  1  0
  9 10  2  0
  8 11  2  0
 11 12  1  0
 12  1  1  0
 12 13  1  4
M  END
> <Smiles>
C1C(O)(C(OC)=O)C(C=O)=CC1C

> <IC50_uM>
0.741310241

> <pIC50>
6.13

> <Activity>
1

$$$$

  SciTegic10102310092D

 12 12  0  0  0  0            999 V2000
    1.2990   -0.7500    0.0000 C   0  0
    1.2990    0.7500    0.0000 C   0  0
    2.5981    1.5000    0.0000 Cl  0  0
    0.0000    1.5000    0.0000 C   0  0
   -0.0031    3.0008    0.0000 N   0  0
   -1.3039    3.7494    0.0000 C   0  0
   -1.3070    5.2494    0.0000 O   0  0
   -2.6017    2.9971    0.0000 C   0  0
   -1.2990    0.7500    0.0000 C   0  0
   -1.2990   -0.7500    0.0000 C   0  0
   -2.5981   -1.5000    0.0000 C   0  0
    0.0000   -1.5000    0.0000 C   0  0
  1  2  2  0
  2  3  1  0
  2  4  1  0
  4  5  1  0
  5  6  1  0
  6  7  2  0
  6  8  1  0
  4  9  2  0
  9 10  1  0
 10 11  1  0
 10 12  2  0
 12  1  1  0
M  END
> <Smiles>
c1c(Cl)c(NC(=O)C)cc(C)c1

> <IC50_uM>
0.741310241

> <pIC50>
6.13

> <Activity>
1

$$$$

  SciTegic10102310092D

 13 13  0  0  0  0            999 V2000
    1.2990   -0.7500    0.0000 C   0  0
    1.2990    0.7500    0.0000 C   0  0
    2.5972    1.5031    0.0000 O   0  0
    2.5951    3.0039    0.0000 C   0  0
    3.8933    3.7570    0.0000 C   0  0  3  0  0  0
    3.8912    5.2578    0.0000 C   0  0
    5.1886    6.0105    0.0000 O   0  0
    5.1936    3.0093    0.0000 O   0  0
    0.0000    1.5000    0.0000 C   0  0
   -1.2990    0.7500    0.0000 C   0  0
   -1.2990   -0.7500    0.0000 C   0  0
   -2.5981   -1.5000    0.0000 F   0  0
    0.0000   -1.5000    0.0000 C   0  0
  1  2  2  0
  2  3  1  0
  3  4  1  0
  4  5  1  0
  5  6  1  0
  6  7  1  0
  5  8  1  4
  2  9  1  0
  9 10  2  0
 10 11  1  0
 11 12  1  0
 11 13  2  0
 13  1  1  0
M  END
> <Smiles>
c1c(OCC(CO)O)ccc(F)c1

> <IC50_uM>
0.741310241

> <pIC50>
6.13

> <Activity>
1

$$$$

  SciTegic10102310092D

 13 12  0  0  0  0            999 V2000
    3.9053   -2.2531    0.0000 C   0  0
    5.2030   -1.5008    0.0000 C   0  0
    5.2000    0.0000    0.0000 C   0  0
    3.9000    0.7500    0.0000 N   0  0
    2.6000    0.0000    0.0000 N   0  0
    1.3000    0.7500    0.0000 C   0  0
    1.3000    2.2500    0.0000 N   0  0
    0.0007    0.0004    0.0000 O   0  0
    6.5000    0.7500    0.0000 N   0  0
    7.7999    0.0000    0.0000 C   0  0
    9.0999    0.7500    0.0000 C   0  0
   10.3992    0.0004    0.0000 C   0  0
    6.5032   -2.2490    0.0000 O   0  0
  1  2  1  0
  2  3  1  0
  3  4  1  0
  4  5  1  0
  5  6  1  0
  6  7  1  0
  6  8  2  0
  3  9  2  0
  9 10  1  0
 10 11  1  0
 11 12  1  0
  2 13  2  0
M  END
> <Smiles>
CC(\C(\NNC(N)=O)=N/CCC)=O

> <IC50_uM>
0.741310241

> <pIC50>
6.13

> <Activity>
1

$$$$

  SciTegic10102310092D

 13 13  0  0  0  0            999 V2000
   -0.7500   -0.4330    0.0000 C   0  0
   -2.0662    0.3081    0.0000 C   0  0
   -2.0668    1.8090    0.0000 N   0  0
   -3.3663    2.5597    0.0000 C   0  0
   -3.3668    4.0597    0.0000 C   0  0
   -4.6653    1.8097    0.0000 C   0  0
   -0.7686    2.5621    0.0000 C   0  0
   -0.7708    4.0621    0.0000 C   0  0
    0.5318    1.8144    0.0000 C   0  0
   -3.3653   -0.4419    0.0000 O   0  0
   -0.7665   -1.9329    0.0000 C   0  0
    0.7500   -0.4330    0.0000 C   0  0
    0.0000    0.8660    0.0000 C   0  0
  1  2  1  0
  2  3  1  0
  3  4  1  0
  4  5  1  0
  4  6  1  0
  3  7  1  0
  7  8  1  0
  7  9  1  0
  2 10  2  0
  1 11  1  0
  1 12  1  0
 12 13  1  0
 13  1  1  0
M  END
> <Smiles>
C1(C(N(C(C)C)C(C)C)=O)(C)CC1

> <IC50_uM>
0.741310241

> <pIC50>
6.13

> <Activity>
1

$$$$

  SciTegic10102310092D

 10  9  0  0  0  0            999 V2000
    0.0007    0.0004    0.0000 Cl  0  0
    1.3000    0.7500    0.0000 C   0  0
    2.6000    0.0000    0.0000 C   0  0
    3.9000    0.7500    0.0000 N   0  0
    5.2000    0.0000    0.0000 C   0  0
    6.5000    0.7500    0.0000 S   0  0
    7.7999    0.0000    0.0000 C   0  0
    9.0999    0.7500    0.0000 C   0  0
   10.3992    0.0004    0.0000 O   0  0
    5.2000   -1.5000    0.0000 O   0  0
  1  2  1  0
  2  3  1  0
  3  4  1  0
  4  5  1  0
  5  6  1  0
  6  7  1  0
  7  8  1  0
  8  9  1  0
  5 10  2  0
M  END
> <Smiles>
ClCCNC(SCCO)=O

> <IC50_uM>
0.741310241

> <pIC50>
6.13

> <Activity>
1

$$$$

  SciTegic10102310092D

 13 13  0  0  0  0            999 V2000
   -2.0420   -1.1753    0.0000 C   0  0  3  0  0  0
   -3.3407   -0.4229    0.0000 C   0  0
   -4.6420   -1.1706    0.0000 C   0  0
   -4.6438   -2.1706    0.0000 O   0  5
   -5.9399   -0.4186    0.0000 O   0  0
   -2.0478   -2.6761    0.0000 C   0  0
   -3.3500   -3.4223    0.0000 N   0  3
   -3.3558   -4.9223    0.0000 C   0  0
   -4.6518   -4.1675    0.0000 C   0  0
   -4.2143   -2.9192    0.0000 C   0  0
   -0.7500   -0.4330    0.0000 C   0  0
    0.7500   -0.4330    0.0000 C   0  0
    0.0000    0.8660    0.0000 C   0  0
  1  2  1  4
  2  3  1  0
  3  4  1  0
  3  5  2  0
  1  6  1  0
  6  7  1  0
  7  8  1  0
  7  9  1  0
  7 10  1  0
  1 11  1  0
 11 12  1  0
 12 13  1  0
 13 11  1  0
M  CHG  2   4  -1   7   1
M  END
> <Smiles>
C(CC([O-])=O)(C[N+](C)(C)C)C1CC1

> <IC50_uM>
0.741310241

> <pIC50>
6.13

> <Activity>
1

$$$$

  SciTegic10102310092D

 13 14  0  0  0  0            999 V2000
    0.7500   -1.0323    0.0000 N   0  0
    1.2135    0.3943    0.0000 C   0  0  3  0  0  0
    1.6577    1.8270    0.0000 C   0  0
    0.0000    1.2760    0.0000 O   0  0
   -1.2135    0.3943    0.0000 C   0  0
   -0.7500   -1.0323    0.0000 C   0  0  3  0  0  0
   -1.6332   -2.2426    0.0000 C   0  0
   -3.1247   -2.0836    0.0000 C   0  0
   -1.0255   -3.6140    0.0000 C   0  0
    2.7029    0.4347    0.0000 C   0  0
    3.1804   -0.9873    0.0000 C   0  0
    1.9755   -1.8808    0.0000 C   0  0
    1.9999   -3.3806    0.0000 O   0  0
  1  2  1  0
  2  3  1  4
  2  4  1  0
  4  5  1  0
  5  6  1  0
  6  1  1  0
  6  7  1  4
  7  8  1  0
  7  9  1  0
  2 10  1  0
 10 11  1  0
 11 12  1  0
 12  1  1  0
 12 13  2  0
M  END
> <Smiles>
N12C(C)(OCC1C(C)C)CCC2=O

> <IC50_uM>
0.741310241

> <pIC50>
6.13

> <Activity>
1

$$$$

  SciTegic10102310092D

 13 12  0  0  0  0            999 V2000
    0.0007    0.0004    0.0000 C   0  0
    1.3000    0.7500    0.0000 C   0  0
    2.6000    1.5000    0.0000 C   0  0
    3.9000    2.2500    0.0000 C   0  0
    5.2000    1.5000    0.0000 O   0  0
    6.5000    2.2500    0.0000 C   0  0
    7.7992    1.5004    0.0000 C   0  0
    3.9000    3.7507    0.0000 O   0  0
    5.1992    4.5020    0.0000 C   0  0
    5.1992    6.0020    0.0000 C   0  0
    3.9028    0.7200    0.0000 O   0  0
    5.2035   -0.0287    0.0000 C   0  0
    5.2064   -1.5287    0.0000 C   0  0
  1  2  1  0
  2  3  3  0
  3  4  1  0
  4  5  1  0
  5  6  1  0
  6  7  1  0
  4  8  1  0
  8  9  1  0
  9 10  1  0
  4 11  1  0
 11 12  1  0
 12 13  1  0
M  END
> <Smiles>
CC#CC(OCC)(OCC)OCC

> <IC50_uM>
0.741310241

> <pIC50>
6.13

> <Activity>
1

$$$$

  SciTegic10102310092D

 13 14  0  0  0  0            999 V2000
    0.0000    0.0000    0.0000 C   0  0
   -0.7535    1.2961    0.0000 C   0  0
   -2.2606    1.2961    0.0000 C   0  0
   -3.0141    0.0000    0.0000 C   0  0
   -4.0691   -1.0549    0.0000 C   0  0  3  0  0  0
   -5.3664   -1.8020    0.0000 C   0  0
   -6.6684   -1.0571    0.0000 O   0  0
   -2.7641   -1.7945    0.0000 C   0  0
   -5.1391    0.0000    0.0000 C   0  0
   -6.6391    0.0000    0.0000 O   0  0
   -4.0691    1.0549    0.0000 O   0  0
   -2.2606   -1.2961    0.0000 C   0  0
   -0.7535   -1.2961    0.0000 C   0  0
  1  2  1  0
  2  3  1  0
  3  4  1  0
  4  5  1  0
  5  6  1  0
  6  7  1  0
  5  8  1  4
  5  9  1  0
  9 10  2  0
  9 11  1  0
 11  4  1  0
  4 12  1  0
 12 13  1  0
 13  1  1  0
M  END
> <Smiles>
C1CCC2(C(CO)(C)C(=O)O2)CC1

> <IC50_uM>
0.741310241

> <pIC50>
6.13

> <Activity>
1

$$$$

  SciTegic10102310092D

 13 13  0  0  0  0            999 V2000
    1.2990   -0.7500    0.0000 C   0  0
    1.2990    0.7500    0.0000 C   0  0
    0.0000    1.5000    0.0000 N   0  0
   -1.2990    0.7500    0.0000 C   0  0
   -1.2990   -0.7500    0.0000 N   0  0
    0.0000   -1.5000    0.0000 C   0  0
    0.0000   -3.0000    0.0000 N   0  0
   -2.6003    1.4977    0.0000 N   0  0
   -3.8990    0.7455    0.0000 C   0  0
   -5.2003    1.4932    0.0000 C   0  0
   -6.4983    0.7413    0.0000 O   0  0
   -2.6030    2.9977    0.0000 C   0  0
    2.5981    1.5000    0.0000 O   0  0
  1  2  2  0
  2  3  1  0
  3  4  2  0
  4  5  1  0
  5  6  2  0
  6  1  1  0
  6  7  1  0
  4  8  1  0
  8  9  1  0
  9 10  1  0
 10 11  1  0
  8 12  1  0
  2 13  1  0
M  END
> <Smiles>
c1c(nc(nc1N)N(CCO)C)O

> <IC50_uM>
0.741310241

> <pIC50>
6.13

> <Activity>
1

$$$$

  SciTegic10102310092D

 14 16  0  0  0  0            999 V2000
    1.6852   -0.3846    0.0000 C   0  0
    1.3514    1.0778    0.0000 C   0  0
    0.0000    1.7286    0.0000 C   0  0
   -1.3515    1.0777    0.0000 N   0  0
   -2.6395    1.8472    0.0000 N   0  0
   -3.7691    0.8603    0.0000 N   0  0
   -3.1796   -0.5190    0.0000 C   0  0
   -1.6852   -0.3847    0.0000 C   0  0
   -0.7500   -1.5574    0.0000 C   0  0
    0.7500   -1.5574    0.0000 N   0  0
    2.4522    2.0983    0.0000 C   0  0
    3.8856    1.6562    0.0000 C   0  0
    4.2194    0.1938    0.0000 C   0  0
    3.1198   -0.8265    0.0000 C   0  0
  1  2  2  0
  2  3  1  0
  3  4  1  0
  4  5  1  0
  5  6  2  0
  6  7  1  0
  4  8  1  0
  8  7  2  0
  8  9  1  0
  9 10  2  0
 10  1  1  0
  2 11  1  0
 11 12  2  0
 12 13  1  0
 13 14  2  0
 14  1  1  0
M  END
> <Smiles>
c12c(Cn(nnc3)c3C=N1)cccc2

> <IC50_uM>
0.741310241

> <pIC50>
6.13

> <Activity>
1

$$$$

  SciTegic10102310092D

 13 14  0  0  0  0            999 V2000
   -0.5500    0.1000    0.0000 C   0  0  3  0  0  0
   -2.4100   -1.1200    0.0000 C   0  0
   -1.1100   -1.2500    0.0000 C   0  0  3  0  0  0
   -1.0500    1.2700    0.0000 C   0  0
   -2.4406    1.8324    0.0000 C   0  0
    0.0214    2.3198    0.0000 C   0  0
    0.0800   -1.7300    0.0000 C   0  0
    1.1900   -1.3900    0.0000 C   0  0
    2.5596   -2.0057    0.0000 N   0  0
    2.7119   -3.4979    0.0000 O   0  0
    0.7000   -0.3200    0.0000 C   0  0  3  0  0  0
    0.3228    1.1318    0.0000 C   0  0
    2.1807   -0.5595    0.0000 O   0  0
  1  2  1  4
  3  2  1  4
  3  4  1  0
  4  1  1  0
  4  5  1  0
  4  6  1  0
  3  7  1  0
  7  8  1  0
  8  9  2  0
  9 10  1  0
  8 11  1  0
 11  1  1  0
 11 12  1  4
 11 13  1  0
M  END
> <Smiles>
C12CC(C1(C)C)C\C(=N/O)\C2(C)O

> <IC50_uM>
0.741310241

> <pIC50>
6.13

> <Activity>
1

$$$$

  SciTegic10102310092D

 33 36  0  0  0  0            999 V2000
    3.1676   -7.5606    0.0000 C   0  0
    1.7006   -7.2475    0.0000 C   0  0
    0.6960   -8.3614    0.0000 C   0  0
   -0.7710   -8.0483    0.0000 C   0  0
   -1.7756   -9.1622    0.0000 C   0  0
   -1.2333   -6.6213    0.0000 C   0  0
   -0.2287   -5.5075    0.0000 C   0  0
   -0.6913   -4.0797    0.0000 S   0  0
   -2.1584   -3.7671    0.0000 O   0  0
   -1.6957   -5.1937    0.0000 O   0  0
    0.3114   -2.9665    0.0000 C   0  0
    1.8032   -3.1233    0.0000 C   0  0
    2.5551   -4.4192    0.0000 C   0  0
    1.8074   -5.7196    0.0000 O   0  0
    4.0559   -4.4171    0.0000 N   0  0
    4.8090   -5.7153    0.0000 C   0  0
    6.3098   -5.7131    0.0000 C   0  0
    7.0629   -7.0113    0.0000 N   0  0
    8.5630   -7.0113    0.0000 C   0  0
    9.3130   -8.3103    0.0000 C   0  0
    8.5631   -9.6094    0.0000 O   0  0
    7.0631   -9.6094    0.0000 C   0  0
    6.3130   -8.3104    0.0000 C   0  0
    2.4133   -1.7530    0.0000 N   0  0
    1.2990   -0.7500    0.0000 C   0  0
    1.2990    0.7500    0.0000 C   0  0
    0.0000    1.5000    0.0000 C   0  0
   -1.2990    0.7500    0.0000 C   0  0
   -2.5981    1.5000    0.0000 Cl  0  0
   -1.2990   -0.7500    0.0000 C   0  0
   -2.5981   -1.5000    0.0000 F   0  0
    0.0000   -1.5000    0.0000 C   0  0
    1.2383   -5.8206    0.0000 C   0  0
  1  2  1  0
  2  3  2  0
  3  4  1  0
  4  5  1  0
  4  6  2  0
  6  7  1  0
  7  8  1  0
  8  9  2  0
  8 10  2  0
  8 11  1  0
 11 12  2  0
 12 13  1  0
 13 14  2  0
 13 15  1  0
 15 16  1  0
 16 17  1  0
 17 18  1  0
 18 19  1  0
 19 20  1  0
 20 21  1  0
 21 22  1  0
 22 23  1  0
 23 18  1  0
 12 24  1  0
 24 25  1  0
 25 26  2  0
 26 27  1  0
 27 28  2  0
 28 29  1  0
 28 30  1  0
 30 31  1  0
 30 32  2  0
 32 11  1  0
 32 25  1  0
  7 33  2  0
 33  2  1  0
M  END
> <Smiles>
Cc1cc(C)cc(S(=O)(=O)c2c(C(=O)NCCN3CCOCC3)[nH]c3ccc(Cl)c(F)c23)c1

> <IC50_uM>
0.747

> <pIC50>
6.126679398

> <Activity>
1

$$$$

  SciTegic10102310092D

 24 27  0  0  0  0            999 V2000
    3.5145   -2.2320    0.0000 C   0  0
    2.0759   -1.8072    0.0000 C   0  0
    1.6852   -0.3846    0.0000 C   0  0  3  0  0  0
    2.6548    0.7277    0.0000 C   0  0
    4.1268    0.4395    0.0000 C   0  0
    5.1124    1.5703    0.0000 C   0  0
    4.6260    2.9892    0.0000 C   0  0
    5.6116    4.1199    0.0000 C   0  0
    3.1539    3.2774    0.0000 C   0  0
    2.1683    2.1466    0.0000 C   0  0
    1.3514    1.0778    0.0000 O   0  0
    0.0000    1.7286    0.0000 C   0  0
    0.1115    3.2255    0.0000 C   0  0
   -1.1278    4.0705    0.0000 C   0  0
   -2.4793    3.4196    0.0000 C   0  0
   -2.5914    1.9238    0.0000 C   0  0
   -1.3515    1.0777    0.0000 C   0  0
   -1.6852   -0.3847    0.0000 N   0  0
   -3.0899   -0.9120    0.0000 C   0  0
   -3.0226   -2.4105    0.0000 C   0  0
   -1.5767   -2.8095    0.0000 C   0  0
   -0.7500   -1.5574    0.0000 C   0  0
    0.7500   -1.5574    0.0000 C   0  0
    1.4008   -2.9088    0.0000 O   0  0
  1  2  1  0
  3  2  1  4
  3  4  1  0
  4  5  2  0
  5  6  1  0
  6  7  2  0
  7  8  1  0
  7  9  1  0
  9 10  2  0
 10  4  1  0
  3 11  1  0
 11 12  1  0
 12 13  2  0
 13 14  1  0
 14 15  2  0
 15 16  1  0
 16 17  2  0
 17 12  1  0
 17 18  1  0
 18 19  1  0
 19 20  2  0
 20 21  1  0
 21 22  2  0
 22 18  1  0
 22 23  1  0
 23  3  1  0
 23 24  2  0
M  END
> <Smiles>
CCC1(c2ccc(C)cc2)Oc2ccccc2-n2cccc2C1=O

> <IC50_uM>
0.75

> <pIC50>
6.124938737

> <Activity>
1

$$$$

  SciTegic10102310092D

 13 12  0  0  0  0            999 V2000
    5.2000    0.0000    0.0000 C   0  0
    5.2000   -1.5000    0.0000 C   0  0
    3.9010   -0.7502    0.0000 C   0  0
    3.9000    0.7500    0.0000 C   0  0
    2.6000    0.0000    0.0000 C   0  0
    1.3000    0.7500    0.0000 C   0  0
    1.3000    2.2500    0.0000 O   0  0
    0.0007    0.0004    0.0000 O   0  0
    6.5000    0.7500    0.0000 C   0  0
    7.7999    0.0000    0.0000 C   0  0
    9.0999    0.7500    0.0000 C   0  0
    9.0999    2.2500    0.0000 O   0  0
   10.3992    0.0004    0.0000 O   0  0
  1  2  1  0
  1  3  1  0
  1  4  1  0
  4  5  1  0
  5  6  1  0
  6  7  1  0
  6  8  2  0
  1  9  1  0
  9 10  1  0
 10 11  1  0
 11 12  1  0
 11 13  2  0
M  END
> <Smiles>
C(C)(C)(CCC(O)=O)CCC(O)=O

> <IC50_uM>
0.758577575

> <pIC50>
6.12

> <Activity>
1

$$$$

  SciTegic10102310092D

 11 13  0  0  0  0            999 V2000
   -2.0404   -1.1781    0.0000 P   0  0
   -0.7500   -0.4330    0.0000 N   0  0
    0.7500   -0.4330    0.0000 C   0  0
    0.0000    0.8660    0.0000 C   0  0
   -2.0414   -2.6789    0.0000 N   0  0
   -1.2921   -3.8869    0.0000 C   0  0
   -2.7921   -3.8859    0.0000 C   0  0
   -3.3399   -0.4273    0.0000 N   0  0
   -4.7606   -0.4726    0.0000 C   0  0
   -4.0102    0.8262    0.0000 C   0  0
   -0.7416   -1.9285    0.0000 S   0  0
  1  2  1  0
  2  3  1  0
  3  4  1  0
  4  2  1  0
  1  5  1  0
  5  6  1  0
  6  7  1  0
  7  5  1  0
  1  8  1  0
  8  9  1  0
  9 10  1  0
 10  8  1  0
  1 11  2  0
M  END
> <Smiles>
P(N1CC1)(N2CC2)(N3CC3)=S

> <IC50_uM>
0.758577575

> <pIC50>
6.12

> <Activity>
1

$$$$

  SciTegic10102310092D

 14 15  0  0  0  0            999 V2000
    2.5973   -1.5031    0.0000 C   0  0
    1.2990   -0.7500    0.0000 C   0  0
    1.2990    0.7500    0.0000 C   0  0
    0.0000    1.5000    0.0000 C   0  0
   -1.2990    0.7500    0.0000 C   0  0
   -2.5981    1.5000    0.0000 O   0  0
   -1.2990   -0.7500    0.0000 C   0  0
    0.0000   -1.5000    0.0000 C   0  0
    2.5951   -3.0039    0.0000 C   0  0
    3.8092   -3.8630    0.0000 C   0  0
    3.3466   -5.2898    0.0000 C   0  0
    1.8466   -5.2908    0.0000 O   0  0
    1.3822   -3.8645    0.0000 C   0  0
   -0.0419   -3.3934    0.0000 O   0  0
  1  2  1  0
  2  3  2  0
  3  4  1  0
  4  5  2  0
  5  6  1  0
  5  7  1  0
  7  8  2  0
  8  2  1  0
  1  9  2  0
  9 10  1  0
 10 11  1  0
 11 12  1  0
  9 13  1  0
 13 12  1  0
 13 14  2  0
M  END
> <Smiles>
C(/c1ccc(O)cc1)=C(\CCO2)/C2=O

> <IC50_uM>
0.758577575

> <pIC50>
6.12

> <Activity>
1

$$$$

  SciTegic10102310092D

 13 12  0  0  0  0            999 V2000
    9.0999    0.7500    0.0000 C   0  0
    7.7999    0.0000    0.0000 C   0  0
    6.5000    0.7500    0.0000 C   0  0
    5.2000    0.0000    0.0000 C   0  0
    3.9000    0.7500    0.0000 C   0  0
    2.6000    0.0000    0.0000 C   0  0
    1.3000    0.7500    0.0000 C   0  0
    1.3000    2.2500    0.0000 O   0  0
    0.0007    0.0004    0.0000 O   0  0
   10.3999    0.0000    0.0000 C   0  0
   11.6999    0.7500    0.0000 C   0  0
   11.6999    2.2500    0.0000 O   0  0
   12.9992    0.0004    0.0000 O   0  0
  1  2  1  0
  2  3  1  0
  3  4  1  0
  4  5  1  0
  5  6  1  0
  6  7  1  0
  7  8  1  0
  7  9  2  0
  1 10  1  0
 10 11  1  0
 11 12  1  0
 11 13  2  0
M  END
> <Smiles>
C(CCCCCC(O)=O)CC(O)=O

> <IC50_uM>
0.758577575

> <pIC50>
6.12

> <Activity>
1

$$$$

  SciTegic10102310092D

 13 12  0  0  0  0            999 V2000
    2.6000    0.0000    0.0000 C   0  0
    2.6000   -1.5007    0.0000 C   0  0
    1.7343   -2.0013    0.0000 C   0  0
    1.3000    0.7500    0.0000 C   0  0
    1.3000    2.2500    0.0000 O   0  0
    0.4338    0.2503    0.0000 O   0  0
    1.2761   -0.7669    0.0000 C   0  0
    0.4095   -0.2678    0.0000 O   0  0
    1.2769   -1.7669    0.0000 O   0  0
    3.9000    0.7500    0.0000 C   0  0  3  0  0  0
    3.9000    2.2500    0.0000 C   0  0
    5.2000    0.0000    0.0000 C   0  0
    6.4992    0.7496    0.0000 C   0  0
  1  2  1  0
  2  3  1  0
  1  4  1  0
  4  5  1  0
  4  6  2  0
  1  7  1  0
  7  8  1  0
  7  9  2  0
  1 10  1  0
 10 11  1  4
 10 12  1  0
 12 13  1  0
M  END
> <Smiles>
C(CC)(C(O)=O)(C(O)=O)C(C)CC

> <IC50_uM>
0.758577575

> <pIC50>
6.12

> <Activity>
1

$$$$

  SciTegic10102310092D

 14 15  0  0  0  0            999 V2000
    2.6003   -1.4977    0.0000 C   0  0
    1.2990   -0.7500    0.0000 C   0  0
    1.2990    0.7500    0.0000 C   0  0
    0.0000    1.5000    0.0000 C   0  0
   -1.2990    0.7500    0.0000 C   0  0
   -2.5981    1.5000    0.0000 C   0  0
   -2.5981    3.0000    0.0000 C   0  0
   -1.2991    3.7500    0.0000 C   0  0
    0.0000    3.0000    0.0000 C   0  0
   -1.2990   -0.7500    0.0000 O   0  0
    0.0000   -1.5000    0.0000 C   0  0
    0.0000   -3.0000    0.0000 O   0  0
    2.6030   -2.9977    0.0000 O   0  0
    3.8983   -0.7459    0.0000 O   0  0
  1  2  1  0
  2  3  2  0
  3  4  1  0
  4  5  2  0
  5  6  1  0
  6  7  2  0
  7  8  1  0
  8  9  2  0
  9  4  1  0
  5 10  1  0
 10 11  1  0
 11  2  1  0
 11 12  2  0
  1 13  1  0
  1 14  2  0
M  END
> <Smiles>
C(C1=Cc2c(cccc2)OC1=O)(O)=O

> <IC50_uM>
0.758577575

> <pIC50>
6.12

> <Activity>
1

$$$$

  SciTegic10102310092D

 14 15  0  0  0  0            999 V2000
    3.1476   -0.7184    0.0000 O   0  0
    1.6852   -0.3846    0.0000 C   0  0
    1.3514    1.0778    0.0000 C   0  0
    0.0000    1.7286    0.0000 C   0  0
   -1.3515    1.0777    0.0000 C   0  0
   -1.6852   -0.3847    0.0000 C   0  0
   -0.7500   -1.5574    0.0000 C   0  0
    0.7500   -1.5574    0.0000 N   0  0
    1.4012   -2.9095    0.0000 C   0  0
    0.4925   -4.1079    0.0000 N   0  0
    1.0734   -5.4909    0.0000 C   0  0
    2.5615   -5.6793    0.0000 C   0  0
    3.4687   -4.4848    0.0000 C   0  0
    2.8879   -3.1018    0.0000 C   0  0
  1  2  2  0
  2  3  1  0
  3  4  1  0
  4  5  1  0
  5  6  1  0
  6  7  1  0
  7  8  1  0
  8  2  1  0
  8  9  1  0
  9 10  2  0
 10 11  1  0
 11 12  2  0
 12 13  1  0
 13 14  2  0
 14  9  1  0
M  END
> <Smiles>
O=C1CCCCCN1c2ncccc2

> <IC50_uM>
0.758577575

> <pIC50>
6.12

> <Activity>
1

$$$$

  SciTegic10102310092D

 12 12  0  0  0  0            999 V2000
    2.5973   -1.5031    0.0000 C   0  0
    1.2990   -0.7500    0.0000 C   0  0
    1.2990    0.7500    0.0000 C   0  0
    0.0000    1.5000    0.0000 S   0  0
   -1.2990    0.7500    0.0000 C   0  0
   -1.2990   -0.7500    0.0000 C   0  0
    0.0000   -1.5000    0.0000 C   0  0
    2.5981    1.5000    0.0000 N   0  0
    3.8976   -0.7553    0.0000 O   0  0
    2.5951   -3.0039    0.0000 O   0  0
    3.8933   -3.7570    0.0000 C   0  0
    3.8912   -5.2570    0.0000 C   0  0
  1  2  1  0
  2  3  2  0
  3  4  1  0
  4  5  1  0
  5  6  1  0
  6  7  1  0
  7  2  1  0
  3  8  1  0
  1  9  2  0
  1 10  1  0
 10 11  1  0
 11 12  1  0
M  END
> <Smiles>
C(C1=C(SCCC1)N)(=O)OCC

> <IC50_uM>
0.758577575

> <pIC50>
6.12

> <Activity>
1

$$$$

  SciTegic10102310092D

 11 13  0  0  0  0            999 V2000
   -1.6554    2.5063    0.0000 C   0  0
   -0.3600    1.7500    0.0000 N   0  3  3  0  0  0
   -0.3600    3.1700    0.0000 C   0  0  3  0  0  0
    0.9700    3.6100    0.0000 C   0  0
    1.8000    2.4500    0.0000 C   0  0
    0.9500    1.2900    0.0000 C   0  0  3  0  0  0
   -2.8100    1.7700    0.0000 C   0  0  3  0  0  0
   -2.8100    3.1900    0.0000 C   0  0  3  0  0  0
   -4.1113    3.9361    0.0000 O   0  0
   -1.5800    3.9100    0.0000 C   0  0
   -1.6000    1.0500    0.0000 C   0  0
  2  1  1  4
  2  3  1  0
  3  4  1  4
  4  5  1  0
  2  6  1  0
  6  5  1  4
  6  7  1  0
  7  8  1  0
  8  9  1  4
  8 10  1  0
 10  3  1  0
  7 11  1  4
 11  2  1  0
M  CHG  1   2   1
M  END
> <Smiles>
C[N+]1(C2CC3)C3C(C(O)C2)C1

> <IC50_uM>
0.758577575

> <pIC50>
6.12

> <Activity>
1

$$$$

  SciTegic10102310092D

 12 11  0  0  0  0            999 V2000
    7.7999    0.0000    0.0000 C   0  0
    6.5000    0.7500    0.0000 C   0  0
    5.2000    0.0000    0.0000 S   0  0
    3.9000    0.7500    0.0000 C   0  0
    2.6000    0.0000    0.0000 C   0  0
    1.3000    0.7500    0.0000 C   0  0
    1.3000    2.2500    0.0000 O   0  0
    0.0007    0.0004    0.0000 O   0  0
    9.0999    0.7500    0.0000 C   0  0
   10.3999    0.0000    0.0000 C   0  0
   10.3999   -1.5000    0.0000 O   0  0
   11.6992    0.7496    0.0000 O   0  0
  1  2  1  0
  2  3  1  0
  3  4  1  0
  4  5  2  0
  5  6  1  0
  6  7  1  0
  6  8  2  0
  1  9  1  0
  9 10  1  0
 10 11  1  0
 10 12  2  0
M  END
> <Smiles>
C(CS\C=C\C(O)=O)CC(O)=O

> <IC50_uM>
0.758577575

> <pIC50>
6.12

> <Activity>
1

$$$$

  SciTegic10102310092D

 12 11  0  0  0  0            999 V2000
    5.2000    0.0000    0.0000 S   0  0
    3.9000    0.7500    0.0000 C   0  0
    2.6000    0.0000    0.0000 C   0  0
    1.3000    0.7500    0.0000 C   0  0
    1.3000    2.2500    0.0000 O   0  0
    0.0007    0.0004    0.0000 O   0  0
    6.5000    0.7500    0.0000 C   0  0
    7.7999    0.0000    0.0000 C   0  0
    9.0999    0.7500    0.0000 C   0  0
    9.0999    2.2500    0.0000 O   0  0
   10.3999    0.0000    0.0000 O   0  0
   11.6992    0.7496    0.0000 C   0  0
  1  2  1  0
  2  3  2  0
  3  4  1  0
  4  5  1  0
  4  6  2  0
  1  7  1  0
  7  8  1  0
  8  9  1  0
  9 10  2  0
  9 11  1  0
 11 12  1  0
M  END
> <Smiles>
S(\C=C\C(O)=O)CCC(=O)OC

> <IC50_uM>
0.758577575

> <pIC50>
6.12

> <Activity>
1

$$$$

  SciTegic10102310092D

 12 13  0  0  0  0            999 V2000
    2.5981   -1.5000    0.0000 N   0  0
    1.2990   -0.7500    0.0000 C   0  0
    1.2990    0.7500    0.0000 N   0  0
    0.0000    1.5000    0.0000 S   0  0
   -1.2990    0.7500    0.0000 N   0  0
   -1.2990   -0.7500    0.0000 C   0  0
   -2.4133   -1.7530    0.0000 N   0  0
   -1.8032   -3.1233    0.0000 C   0  0
   -0.3114   -2.9665    0.0000 N   0  0
    0.0000   -1.5000    0.0000 C   0  0
    1.3164    2.2191    0.0000 O   0  0
   -1.3163    2.2193    0.0000 O   0  0
  1  2  1  0
  2  3  2  0
  3  4  1  0
  4  5  2  0
  5  6  1  0
  6  7  1  0
  7  8  1  0
  8  9  2  0
  6 10  2  0
 10  2  1  0
 10  9  1  0
  4 11  1  0
  4 12  2  0
M  END
> <Smiles>
Nc1ns(nc([nH]cn2)c12)(O)=O

> <IC50_uM>
0.758577575

> <pIC50>
6.12

> <Activity>
1

$$$$

  SciTegic10102310092D

 12 13  0  0  0  0            999 V2000
    2.5981   -1.5000    0.0000 N   0  0
    1.2990   -0.7500    0.0000 C   0  0
    1.2990    0.7500    0.0000 N   0  0
    0.0000    1.5000    0.0000 S   0  0
   -1.2990    0.7500    0.0000 N   0  0
   -1.2990   -0.7500    0.0000 C   0  0
    0.0000   -1.5000    0.0000 C   0  0
   -0.3114   -2.9665    0.0000 N   0  0
   -1.8032   -3.1233    0.0000 O   0  0
   -2.4133   -1.7530    0.0000 N   0  0
    1.3164    2.2191    0.0000 O   0  0
   -1.3163    2.2193    0.0000 O   0  0
  1  2  2  0
  2  3  1  0
  3  4  1  0
  4  5  1  0
  5  6  2  0
  6  7  1  0
  7  2  1  0
  7  8  2  0
  8  9  1  0
  9 10  1  0
 10  6  1  0
  4 11  2  0
  4 12  2  0
M  END
> <Smiles>
N=C1NS(N=C2C1=NON2)(=O)=O

> <IC50_uM>
0.758577575

> <pIC50>
6.12

> <Activity>
1

$$$$

  SciTegic10102310092D

 14 16  0  0  0  0            999 V2000
    2.5981   -1.5000    0.0000 O   0  0
    1.2990   -0.7500    0.0000 C   0  0
    1.2990    0.7500    0.0000 N   0  0
    0.0000    1.5000    0.0000 N   0  0
   -1.2990    0.7500    0.0000 C   0  0
   -2.4133    1.7530    0.0000 N   0  0
   -1.8032    3.1233    0.0000 C   0  0
   -0.3115    2.9665    0.0000 C   0  0
   -1.2990   -0.7500    0.0000 C   0  0
   -2.5981   -1.5000    0.0000 C   0  0
   -2.5981   -3.0000    0.0000 C   0  0
   -1.2990   -3.7500    0.0000 C   0  0
    0.0000   -3.0000    0.0000 N   0  0
    0.0000   -1.5000    0.0000 C   0  0
  1  2  2  0
  2  3  1  0
  3  4  1  0
  4  5  1  0
  5  6  2  0
  6  7  1  0
  7  8  1  0
  8  4  1  0
  5  9  1  0
  9 10  2  0
 10 11  1  0
 11 12  2  0
 12 13  1  0
  9 14  1  0
 14  2  1  0
 14 13  2  0
M  END
> <Smiles>
O=C1NN2C(=NCC2)c(cccn3)c13

> <IC50_uM>
0.758577575

> <pIC50>
6.12

> <Activity>
1

$$$$

  SciTegic10102310092D

 14 16  0  0  0  0            999 V2000
    2.5981   -1.5000    0.0000 O   0  0
    1.2990   -0.7500    0.0000 C   0  0
    1.2990    0.7500    0.0000 N   0  0
    0.0000    1.5000    0.0000 N   0  0
   -1.2990    0.7500    0.0000 C   0  0
   -2.4133    1.7530    0.0000 N   0  0
   -1.8032    3.1233    0.0000 C   0  0
   -0.3115    2.9665    0.0000 C   0  0
   -1.2990   -0.7500    0.0000 C   0  0
   -2.5981   -1.5000    0.0000 C   0  0
   -2.5981   -3.0000    0.0000 N   0  0
   -1.2990   -3.7500    0.0000 C   0  0
    0.0000   -3.0000    0.0000 C   0  0
    0.0000   -1.5000    0.0000 C   0  0
  1  2  2  0
  2  3  1  0
  3  4  1  0
  4  5  1  0
  5  6  2  0
  6  7  1  0
  7  8  1  0
  8  4  1  0
  5  9  1  0
  9 10  2  0
 10 11  1  0
 11 12  2  0
 12 13  1  0
  9 14  1  0
 14  2  1  0
 14 13  2  0
M  END
> <Smiles>
O=C1NN2C(=NCC2)c(cncc3)c13

> <IC50_uM>
0.758577575

> <pIC50>
6.12

> <Activity>
1

$$$$

  SciTegic10102310092D

 13 13  0  0  0  0            999 V2000
    0.7500   -1.0323    0.0000 N   0  0
    1.6281   -2.2462    0.0000 C   0  0
    1.0157   -3.6164    0.0000 O   0  0
    1.8954   -4.8324    0.0000 C   0  0
    1.2830   -6.2026    0.0000 C   0  0
    2.1621   -7.4180    0.0000 O   0  0
    1.2135    0.3943    0.0000 C   0  0
    2.6375    0.8603    0.0000 N   0  3
    3.7540   -0.1415    0.0000 O   0  5
    2.9472    2.3279    0.0000 O   0  0
    0.0000    1.2760    0.0000 N   0  0
   -1.2135    0.3943    0.0000 C   0  0
   -0.7500   -1.0323    0.0000 C   0  0
  1  2  1  0
  2  3  1  0
  3  4  1  0
  4  5  1  0
  5  6  1  0
  1  7  1  0
  7  8  1  0
  8  9  1  0
  8 10  2  0
  7 11  2  0
 11 12  1  0
 12 13  2  0
 13  1  1  0
M  CHG  2   8   1   9  -1
M  END
> <Smiles>
n1(COCCO)c([N+]([O-])=O)ncc1

> <IC50_uM>
0.758577575

> <pIC50>
6.12

> <Activity>
1

$$$$

  SciTegic10102310092D

 22 25  0  0  0  0            999 V2000
    5.5717    3.8104    0.0000 C   0  0
    5.1650    2.8968    0.0000 C   0  0
    4.2139    2.5878    0.0000 N   0  0
    4.2139    1.5878    0.0000 N   0  0
    3.4049    1.0000    0.0000 Ga  0  6
    2.4049    1.0000    0.0000 N   0  0
    1.8171    0.1910    0.0000 N   0  0
    1.8171    1.8090    0.0000 N   0  0
    0.8660    1.5000    0.0000 C   0  0
    0.0000    2.0000    0.0000 C   0  0
   -0.8660    1.5000    0.0000 C   0  0
   -0.8660    0.5000    0.0000 C   0  0
    0.0000    0.0000    0.0000 C   0  0
    0.8660    0.5000    0.0000 C   0  0
    3.0959    1.9511    0.0000 Cl  0  5
    4.2139    0.4122    0.0000 Cl  0  5
    3.0959    0.0489    0.0000 Cl  0  5
    5.1650    1.2788    0.0000 N   0  0
    5.7528    2.0878    0.0000 C   0  0
    6.7473    2.1923    0.0000 C   0  0
    7.1540    3.1059    0.0000 C   0  0
    6.5662    3.9149    0.0000 C   0  0
  1  2  2  0
  2  3  1  0
  3  4  1  0
  4  5  1  0
  5  6  1  0
  6  7  1  0
  6  8  1  0
  8  9  1  0
  9 10  2  0
 10 11  1  0
 11 12  2  0
 12 13  1  0
  9 14  1  0
 14  7  1  0
 14 13  2  0
  5 15  1  0
  5 16  1  0
  5 17  1  0
  4 18  1  0
  2 19  1  0
 19 18  1  0
 19 20  2  0
 20 21  1  0
 21 22  2  0
 22  1  1  0
M  CHG  4   5  -2  15  -1  16  -1  17  -1
M  END
> <Smiles>
c1c(NN([Ga-2](N(N2)Nc(cccc3)c23)([Cl-])([Cl-])[Cl-])N4)c4ccc1

> <IC50_uM>
0.758577575

> <pIC50>
6.12

> <Activity>
1

$$$$

  SciTegic10102310092D

 12 12  0  0  0  0            999 V2000
    0.7500   -1.0323    0.0000 N   0  0
    1.6317   -2.2458    0.0000 C   0  0
    1.2135    0.3943    0.0000 C   0  0
    2.6375    0.8603    0.0000 N   0  0
    2.9474    2.3287    0.0000 S   0  0
    1.8309    3.3305    0.0000 C   0  0
    3.2564    3.7966    0.0000 C   0  0
    4.3730    2.7952    0.0000 N   0  0
    0.0000    1.2760    0.0000 N   0  0
   -1.2135    0.3943    0.0000 C   0  0
   -2.6401    0.8578    0.0000 N   0  0
   -0.7500   -1.0323    0.0000 N   0  0
  1  2  1  0
  1  3  1  0
  3  4  1  0
  4  5  2  0
  5  6  1  0
  5  7  1  0
  5  8  2  0
  3  9  2  0
  9 10  1  0
 10 11  2  0
 10 12  1  0
 12  1  1  0
M  END
> <Smiles>
N1(C)C(N=S(C)(C)=N)=NC(=N)N1

> <IC50_uM>
0.758577575

> <pIC50>
6.12

> <Activity>
1

$$$$

  SciTegic10102310092D

 14 15  0  0  0  0            999 V2000
    1.2990   -0.7500    0.0000 C   0  0
    1.2990    0.7500    0.0000 C   0  0
    0.0000    1.5000    0.0000 C   0  0
   -1.2990    0.7500    0.0000 C   0  0
   -1.2990   -0.7500    0.0000 C   0  0
    0.0000   -1.5000    0.0000 C   0  0
    2.5987   -1.5004    0.0000 N   0  0
    3.8991   -0.7525    0.0000 C   0  0
    3.9015    0.7475    0.0000 O   0  0
    5.1969   -1.5045    0.0000 C   0  0
    5.1945   -3.0045    0.0000 C   0  0
    3.8943   -3.7525    0.0000 C   0  0
    3.8919   -5.2525    0.0000 C   0  0
    2.5965   -3.0004    0.0000 N   0  0
  1  2  2  0
  2  3  1  0
  3  4  2  0
  4  5  1  0
  5  6  2  0
  6  1  1  0
  1  7  1  0
  7  8  1  0
  8  9  2  0
  8 10  1  0
 10 11  1  0
 11 12  1  0
 12 13  1  0
 12 14  2  0
 14  7  1  0
M  END
> <Smiles>
c1(ccccc1)N2C(=O)CCC(C)=N2

> <IC50_uM>
0.758577575

> <pIC50>
6.12

> <Activity>
1

$$$$

  SciTegic10102310092D

 14 15  0  0  0  0            999 V2000
    1.2990   -0.7500    0.0000 C   0  0
    1.2990    0.7500    0.0000 C   0  0
    0.0000    1.5000    0.0000 C   0  0
    0.0000    3.0000    0.0000 N   0  0
   -1.2991    3.7500    0.0000 C   0  0  3  0  0  0
   -1.2991    5.2508    0.0000 C   0  0
   -1.2991    6.7508    0.0000 N   0  0
   -2.5981    3.0000    0.0000 C   0  0  3  0  0  0
   -3.8971    3.7500    0.0000 O   0  0
   -2.5981    1.5000    0.0000 C   0  0  3  0  0  0
   -3.8971    0.7500    0.0000 O   0  0
   -1.2990    0.7500    0.0000 C   0  0
   -1.2990   -0.7500    0.0000 C   0  0
    0.0000   -1.5000    0.0000 C   0  0
  1  2  2  0
  2  3  1  0
  3  4  1  0
  4  5  1  0
  5  6  1  4
  6  7  3  0
  5  8  1  0
  8  9  1  4
  8 10  1  0
 10 11  1  4
  3 12  2  0
 12 10  1  0
 12 13  1  0
 13 14  2  0
 14  1  1  0
M  END
> <Smiles>
c1cc(NC(C#N)C(O)C2O)c2cc1

> <IC50_uM>
0.758577575

> <pIC50>
6.12

> <Activity>
1

$$$$

  SciTegic10102310092D

 13 14  0  0  0  0            999 V2000
    0.7500   -1.0323    0.0000 C   0  0
    1.2135    0.3943    0.0000 C   0  0
    0.0000    1.2760    0.0000 C   0  0  3  0  0  0
    0.0000    2.7760    0.0000 O   0  0
   -1.2135    0.3943    0.0000 C   0  0  3  0  0  0
   -2.7115    0.3949    0.0000 C   0  0  3  0  0  0
   -3.5929    1.6086    0.0000 O   0  0
   -3.1750   -1.0317    0.0000 C   0  0  3  0  0  0
   -4.6016   -1.4952    0.0000 O   0  0
   -1.9615   -1.9133    0.0000 C   0  0  3  0  0  0
   -1.9639   -3.4116    0.0000 C   0  0
   -3.2636   -4.1604    0.0000 O   0  0
   -0.7500   -1.0323    0.0000 N   0  0  3  0  0  0
  1  2  1  0
  2  3  1  0
  3  4  1  4
  5  3  1  4
  5  6  1  0
  6  7  1  4
  6  8  1  0
  8  9  1  4
  8 10  1  0
 10 11  1  4
 11 12  1  0
  5 13  1  0
 13  1  1  4
 13 10  1  0
M  END
> <Smiles>
C1CC(O)C(C(O)C(O)C2CO)N12

> <IC50_uM>
0.758577575

> <pIC50>
6.12

> <Activity>
1

$$$$

  SciTegic10102310092D

 12 12  0  0  0  0            999 V2000
    1.2990   -0.7500    0.0000 C   0  0
    2.5973   -1.5031    0.0000 N   0  0
    2.5951   -3.0039    0.0000 C   0  0
    3.8933   -3.7570    0.0000 N   0  0
    3.8912   -5.2570    0.0000 C   0  0
    5.1937   -3.0093    0.0000 C   0  0
    1.2990    0.7500    0.0000 C   0  0
    0.0000    1.5000    0.0000 C   0  0
   -1.2990    0.7500    0.0000 N   0  0
   -1.2990   -0.7500    0.0000 C   0  0
   -2.5981   -1.5000    0.0000 O   0  0
    0.0000   -1.5000    0.0000 N   0  0
  1  2  1  0
  2  3  2  0
  3  4  1  0
  4  5  1  0
  4  6  1  0
  1  7  2  0
  7  8  1  0
  8  9  2  0
  9 10  1  0
 10 11  1  0
 10 12  2  0
 12  1  1  0
M  END
> <Smiles>
c1(\N=C\N(C)C)ccnc(O)n1

> <IC50_uM>
0.758577575

> <pIC50>
6.12

> <Activity>
1

$$$$

  SciTegic10102310092D

 14 16  0  0  0  0            999 V2000
    1.2990   -0.7500    0.0000 C   0  0
    1.2990    0.7500    0.0000 N   0  0
    0.0000    1.5000    0.0000 C   0  0
   -0.3115    2.9665    0.0000 N   0  0
   -1.8032    3.1233    0.0000 C   0  0  3  0  0  0
   -1.1747    4.4852    0.0000 C   0  0
   -2.8831    4.1499    0.0000 C   0  0
   -4.1894    3.4126    0.0000 C   0  0
   -3.8919    1.9424    0.0000 C   0  0
   -4.9136    0.8441    0.0000 O   0  0
   -2.4133    1.7530    0.0000 N   0  0
   -1.2990    0.7500    0.0000 C   0  0
   -1.2990   -0.7500    0.0000 C   0  0
    0.0000   -1.5000    0.0000 C   0  0
  1  2  2  0
  2  3  1  0
  3  4  1  0
  4  5  1  0
  5  6  1  4
  5  7  1  0
  7  8  1  0
  8  9  1  0
  9 10  2  0
  5 11  1  0
 11  9  1  0
  3 12  2  0
 12 11  1  0
 12 13  1  0
 13 14  2  0
 14  1  1  0
M  END
> <Smiles>
c1nc(NC(C)(CCC2=O)N23)c3cc1

> <IC50_uM>
0.758577575

> <pIC50>
6.12

> <Activity>
1

$$$$

  SciTegic10102310092D

 12 12  0  0  0  0            999 V2000
    1.2990   -0.7500    0.0000 C   0  0
    1.2990    0.7500    0.0000 N   0  0
    0.0000    1.5000    0.0000 C   0  0  3  0  0  0
    0.0031    3.0008    0.0000 C   0  0
    1.3039    3.7494    0.0000 O   0  0
    1.3070    5.2494    0.0000 C   0  0
   -1.2947    3.7531    0.0000 O   0  0
   -1.2990    0.7500    0.0000 C   0  0  3  0  0  0
   -1.2636    2.2496    0.0000 C   0  0
   -2.5801   -0.0303    0.0000 O   0  0
   -1.2990   -0.7500    0.0000 C   0  0
    0.0000   -1.5000    0.0000 S   0  0
  1  2  2  0
  2  3  1  0
  3  4  1  4
  4  5  1  0
  5  6  1  0
  4  7  2  0
  3  8  1  0
  8  9  1  4
  8 10  1  0
  8 11  1  0
 11 12  1  0
 12  1  1  0
M  END
> <Smiles>
C1=NC(C(OC)=O)C(C)(O)CS1

> <IC50_uM>
0.758577575

> <pIC50>
6.12

> <Activity>
1

$$$$

  SciTegic10102310092D

 13 12  0  0  0  0            999 V2000
    2.6000    0.0000    0.0000 C   0  0
    1.3000    0.7500    0.0000 C   0  0
    0.0007    0.0004    0.0000 C   0  0
    3.9000    0.7500    0.0000 C   0  0
    5.2000    0.0000    0.0000 O   0  0
    6.5000    0.7500    0.0000 C   0  0
    7.7992    0.0004    0.0000 C   0  0
    3.9000    2.2507    0.0000 O   0  0
    5.1992    3.0020    0.0000 C   0  0
    5.1992    4.5020    0.0000 C   0  0
    3.9028   -0.7800    0.0000 O   0  0
    5.2035   -1.5287    0.0000 C   0  0
    5.2064   -3.0287    0.0000 C   0  0
  1  2  1  0
  2  3  1  0
  1  4  1  0
  4  5  1  0
  5  6  1  0
  6  7  1  0
  4  8  1  0
  8  9  1  0
  9 10  1  0
  4 11  1  0
 11 12  1  0
 12 13  1  0
M  END
> <Smiles>
C(CC)C(OCC)(OCC)OCC

> <IC50_uM>
0.758577575

> <pIC50>
6.12

> <Activity>
1

$$$$

  SciTegic10102310092D

 14 14  0  0  0  0            999 V2000
    6.4869   -6.7636    0.0000 N   0  0
    5.1894   -6.0109    0.0000 C   0  0
    3.8912   -5.2578    0.0000 N   0  0
    3.8933   -3.7570    0.0000 C   0  0
    5.1929   -3.0062    0.0000 N   0  0
    5.1933   -1.5062    0.0000 C   0  0
    2.5951   -3.0039    0.0000 N   0  0
    2.5973   -1.5031    0.0000 C   0  0
    1.2990   -0.7500    0.0000 C   0  0
    1.2990    0.7500    0.0000 C   0  0
    0.0000    1.5000    0.0000 C   0  0
   -1.2990    0.7500    0.0000 C   0  0
   -1.2990   -0.7500    0.0000 C   0  0
    0.0000   -1.5000    0.0000 C   0  0
  1  2  3  0
  2  3  1  0
  3  4  2  0
  4  5  1  0
  5  6  1  0
  4  7  1  0
  7  8  1  0
  8  9  1  0
  9 10  2  0
 10 11  1  0
 11 12  2  0
 12 13  1  0
 13 14  2  0
 14  9  1  0
M  END
> <Smiles>
N#C\N=C(/NC)\NCc1ccccc1

> <IC50_uM>
0.758577575

> <pIC50>
6.12

> <Activity>
1

$$$$

  SciTegic10102310092D

 14 16  0  0  0  0            999 V2000
    1.2990   -0.7500    0.0000 C   0  0
    1.2990    0.7500    0.0000 C   0  0
    2.4133    1.7530    0.0000 C   0  0
    3.9040    1.5957    0.0000 O   0  0
    4.7856    2.8092    0.0000 C   0  0
    4.1755    4.1795    0.0000 C   0  0  3  0  0  0
    5.0572    5.3931    0.0000 O   0  0
    2.6837    4.3363    0.0000 C   0  0
    1.8032    3.1233    0.0000 N   0  0
    0.3114    2.9665    0.0000 N   0  0
    0.0000    1.5000    0.0000 C   0  0
   -1.2990    0.7500    0.0000 C   0  0
   -1.2990   -0.7500    0.0000 C   0  0
    0.0000   -1.5000    0.0000 C   0  0
  1  2  1  0
  2  3  2  0
  3  4  1  0
  4  5  1  0
  5  6  1  0
  6  7  1  4
  6  8  1  0
  3  9  1  0
  9  8  1  0
  9 10  1  0
  2 11  1  0
 11 10  2  0
 11 12  1  0
 12 13  2  0
 13 14  1  0
 14  1  2  0
M  END
> <Smiles>
c1c(c(OCC(O)C2)n2n3)c3ccc1

> <IC50_uM>
0.758577575

> <pIC50>
6.12

> <Activity>
1

$$$$

  SciTegic10102310092D

 14 16  0  0  0  0            999 V2000
    1.2990   -0.7500    0.0000 C   0  0
    1.2990    0.7500    0.0000 N   0  0
    0.0000    1.5000    0.0000 C   0  0
   -0.3115    2.9665    0.0000 N   0  0
   -1.8032    3.1233    0.0000 C   0  0  3  0  0  0
   -1.1747    4.4852    0.0000 C   0  0
   -2.8831    4.1499    0.0000 C   0  0
   -4.1894    3.4126    0.0000 C   0  0
   -3.8919    1.9424    0.0000 C   0  0
   -4.9136    0.8441    0.0000 O   0  0
   -2.4133    1.7530    0.0000 N   0  0
   -1.2990    0.7500    0.0000 C   0  0
   -1.2990   -0.7500    0.0000 C   0  0
    0.0000   -1.5000    0.0000 N   0  0
  1  2  2  0
  2  3  1  0
  3  4  1  0
  4  5  1  0
  5  6  1  4
  5  7  1  0
  7  8  1  0
  8  9  1  0
  9 10  2  0
  5 11  1  0
 11  9  1  0
  3 12  2  0
 12 11  1  0
 12 13  1  0
 13 14  2  0
 14  1  1  0
M  END
> <Smiles>
c1nc(NC(C)(CCC2=O)N23)c3cn1

> <IC50_uM>
0.758577575

> <pIC50>
6.12

> <Activity>
1

$$$$

  SciTegic10102310092D

 28 30  0  0  0  0            999 V2000
    3.8912   -5.2570    0.0000 C   0  0
    3.8933   -3.7570    0.0000 C   0  0
    2.5951   -3.0039    0.0000 O   0  0
    2.5973   -1.5031    0.0000 C   0  0
    1.2990   -0.7500    0.0000 N   0  0
    1.2990    0.7500    0.0000 C   0  0
    2.5972    1.5031    0.0000 C   0  0  3  0  0  0
    3.8983    0.7550    0.0000 C   0  0
    5.1987    0.0072    0.0000 N   0  0
    2.5951    3.0039    0.0000 C   0  0
    3.8915    3.7585    0.0000 C   0  0
    3.8863    5.2585    0.0000 C   0  0
    2.5847    6.0040    0.0000 C   0  0
    2.5795    7.5047    0.0000 C   0  0
    3.8747    8.2614    0.0000 C   0  0
    3.8671    9.7614    0.0000 C   0  0
    2.5643   10.5048    0.0000 C   0  0
    1.2691    9.7483    0.0000 C   0  0
    1.2767    8.2483    0.0000 C   0  0
    1.2883    5.2495    0.0000 C   0  0
    1.2934    3.7495    0.0000 C   0  0
    0.0000    1.5000    0.0000 C   0  0
   -1.2990    0.7500    0.0000 C   0  0
   -2.5981    1.5000    0.0000 O   0  0
   -1.2990   -0.7500    0.0000 N   0  0
   -2.5981   -1.5000    0.0000 O   0  0
    0.0000   -1.5000    0.0000 C   0  0
    0.0000   -3.0000    0.0000 O   0  0
  1  2  1  0
  2  3  1  0
  3  4  1  0
  4  5  1  0
  5  6  1  0
  6  7  1  0
  7  8  1  4
  8  9  3  0
  7 10  1  0
 10 11  2  0
 11 12  1  0
 12 13  2  0
 13 14  1  0
 14 15  2  0
 15 16  1  0
 16 17  2  0
 17 18  1  0
 18 19  2  0
 19 14  1  0
 13 20  1  0
 20 21  2  0
 21 10  1  0
  6 22  2  0
 22 23  1  0
 23 24  2  0
 23 25  1  0
 25 26  1  0
 25 27  1  0
 27  5  1  0
 27 28  2  0
M  END
> <Smiles>
CCOCn1c(C(C#N)c2ccc(-c3ccccc3)cc2)cc(=O)n(O)c1=O

> <IC50_uM>
0.76

> <pIC50>
6.119186408

> <Activity>
1

$$$$

  SciTegic10102310092D

 29 32  0  0  0  0            999 V2000
    4.8689    3.5238    0.0000 O   0  0
    5.9880    2.5249    0.0000 C   0  0
    5.6819    1.0557    0.0000 C   0  0
    4.2567    0.5852    0.0000 S   0  0
    3.9511   -0.8815    0.0000 C   0  0
    4.9531   -1.9978    0.0000 N   0  0
    4.2010   -3.2956    0.0000 N   0  0
    2.7343   -2.9815    0.0000 N   0  0
    2.5987   -1.5004    0.0000 N   0  0
    1.2990   -0.7500    0.0000 C   0  0
    1.2990    0.7500    0.0000 C   0  0
    0.0000    1.5000    0.0000 C   0  0
   -1.2990    0.7500    0.0000 C   0  0
   -1.2990   -0.7500    0.0000 C   0  0
   -2.5981   -1.5000    0.0000 C   0  0
   -2.5981   -3.0000    0.0000 C   0  0
   -1.2990   -3.7500    0.0000 C   0  0
    0.0000   -3.0000    0.0000 C   0  0
    0.0000   -1.5000    0.0000 C   0  0
    7.4132    2.9954    0.0000 N   0  0
    7.7193    4.4647    0.0000 C   0  0
    6.5985    5.4617    0.0000 C   0  0
    6.9014    6.9308    0.0000 C   0  0
    8.3252    7.4030    0.0000 C   0  0
    9.4460    6.4061    0.0000 C   0  0
    9.1430    4.9370    0.0000 C   0  0
   10.2665    3.9419    0.0000 N   0  3
   11.6896    4.4161    0.0000 O   0  0
    9.9662    2.4722    0.0000 O   0  5
  1  2  2  0
  2  3  1  0
  3  4  1  0
  4  5  1  0
  5  6  2  0
  6  7  1  0
  7  8  2  0
  8  9  1  0
  9  5  1  0
  9 10  1  0
 10 11  2  0
 11 12  1  0
 12 13  2  0
 13 14  1  0
 14 15  2  0
 15 16  1  0
 16 17  2  0
 17 18  1  0
 18 19  2  0
 19 10  1  0
 19 14  1  0
  2 20  1  0
 20 21  1  0
 21 22  2  0
 22 23  1  0
 23 24  2  0
 24 25  1  0
 25 26  2  0
 26 21  1  0
 26 27  1  0
 27 28  2  0
 27 29  1  0
M  CHG  2  27   1  29  -1
M  END
> <Smiles>
O=C(CSc1nnnn1-c1cccc2ccccc12)Nc1ccccc1[N+](=O)[O-]

> <IC50_uM>
0.766

> <pIC50>
6.11577123

> <Activity>
1

$$$$

  SciTegic10102310092D

 31 33  0  0  0  0            999 V2000
    2.5981   -1.5000    0.0000 C   0  0
    1.2990   -0.7500    0.0000 C   0  0
    1.2990    0.7500    0.0000 C   0  0
    0.0000    1.5000    0.0000 C   0  0
   -1.2990    0.7500    0.0000 C   0  0
   -2.6003    1.4977    0.0000 N   0  0
   -3.8990    0.7455    0.0000 C   0  0
   -3.8964   -0.7545    0.0000 O   0  0
   -5.2003    1.4932    0.0000 C   0  0
   -6.4990    0.7409    0.0000 S   0  0
   -5.1988   -0.0070    0.0000 O   0  0
   -6.4964   -0.7591    0.0000 O   0  0
   -7.8003    1.4887    0.0000 C   0  0
   -9.0978    0.7360    0.0000 N   0  0
  -10.3984    1.4833    0.0000 C   0  0
  -10.4015    2.9833    0.0000 C   0  0
   -9.1040    3.7360    0.0000 C   0  0
   -9.1040    5.2368    0.0000 O   0  0
   -7.8047    5.9880    0.0000 C   0  0
   -7.8025    7.4881    0.0000 C   0  0
   -9.1005    8.2399    0.0000 C   0  0
   -6.5024    8.2363    0.0000 C   0  0
   -5.2044    7.4844    0.0000 C   0  0
   -3.9036    8.2330    0.0000 C   0  0
   -2.6036    8.9812    0.0000 N   0  0
   -5.2065    5.9844    0.0000 C   0  0
   -6.5066    5.2363    0.0000 C   0  0
   -6.5087    3.7363    0.0000 C   0  0
   -7.8034    2.9887    0.0000 N   0  0
   -1.2990   -0.7500    0.0000 C   0  0
    0.0000   -1.5000    0.0000 C   0  0
  1  2  1  0
  2  3  2  0
  3  4  1  0
  4  5  2  0
  5  6  1  0
  6  7  1  0
  7  8  2  0
  7  9  1  0
  9 10  1  0
 10 11  2  0
 10 12  2  0
 10 13  1  0
 13 14  2  0
 14 15  1  0
 15 16  2  0
 16 17  1  0
 17 18  1  0
 18 19  1  0
 19 20  2  0
 20 21  1  0
 20 22  1  0
 22 23  2  0
 23 24  1  0
 24 25  3  0
 23 26  1  0
 26 27  2  0
 27 19  1  0
 27 28  1  0
 17 29  2  0
 29 13  1  0
  5 30  1  0
 30 31  2  0
 31  2  1  0
M  END
> <Smiles>
Cc1ccc(NC(=O)CS(=O)(=O)c2nccc(Oc3c(C)cc(C#N)cc3C)n2)cc1

> <IC50_uM>
0.766

> <pIC50>
6.11577123

> <Activity>
1

$$$$

  SciTegic10102310092D

 35 38  0  0  0  0            999 V2000
    2.5981   -1.5000    0.0000 C   0  0
    1.2990   -0.7500    0.0000 C   0  0
    1.2990    0.7500    0.0000 C   0  0
    0.0000    1.5000    0.0000 C   0  0
   -1.2990    0.7500    0.0000 C   0  0
   -2.5987    1.5004    0.0000 N   0  0
   -3.9492    0.8772    0.0000 N   0  0
   -4.9546    1.9903    0.0000 C   0  0
   -4.2067    3.2905    0.0000 C   0  0
   -2.7390    2.9810    0.0000 C   0  0
   -1.6216    3.9790    0.0000 O   0  0
   -1.9268    5.4485    0.0000 C   0  0
   -0.8074    6.4482    0.0000 C   0  0
    0.6172    5.9785    0.0000 O   0  0
   -1.1126    7.9177    0.0000 N   0  0
    0.0068    8.9174    0.0000 C   0  0
    1.4306    8.4453    0.0000 C   0  0
    2.5514    9.4422    0.0000 C   0  0
    2.2485   10.9113    0.0000 C   0  0
    3.3698   11.9087    0.0000 C   0  0
    4.7944   11.4389    0.0000 C   0  0
    5.9136   12.4375    0.0000 C   0  0
    5.6083   13.9061    0.0000 C   0  0
    6.7261   14.9077    0.0000 C   0  0
    6.4186   16.3767    0.0000 C   0  0
    7.5357   17.3777    0.0000 O   0  0
    4.9933   16.8441    0.0000 O   0  0
    4.1839   14.3761    0.0000 C   0  0
    3.0646   13.3774    0.0000 C   0  0
    0.8247   11.3835    0.0000 C   0  0
   -0.2961   10.3866    0.0000 C   0  0
   -1.7198   10.8588    0.0000 Cl  0  0
   -1.2990   -0.7500    0.0000 C   0  0
   -2.5981   -1.5000    0.0000 Cl  0  0
    0.0000   -1.5000    0.0000 C   0  0
  1  2  1  0
  2  3  2  0
  3  4  1  0
  4  5  2  0
  5  6  1  0
  6  7  1  0
  7  8  2  0
  8  9  1  0
  9 10  2  0
 10  6  1  0
 10 11  1  0
 11 12  1  0
 12 13  1  0
 13 14  2  0
 13 15  1  0
 15 16  1  0
 16 17  2  0
 17 18  1  0
 18 19  2  0
 19 20  1  0
 20 21  2  0
 21 22  1  0
 22 23  2  0
 23 24  1  0
 24 25  1  0
 25 26  2  0
 25 27  1  0
 23 28  1  0
 28 29  2  0
 29 20  1  0
 19 30  1  0
 30 31  2  0
 31 16  1  0
 31 32  1  0
  5 33  1  0
 33 34  1  0
 33 35  2  0
 35  2  1  0
M  END
> <Smiles>
Cc1ccc(-n2nccc2OCC(=O)Nc2ccc(-c3ccc(CC(=O)O)cc3)cc2Cl)c(Cl)c1

> <IC50_uM>
0.77

> <pIC50>
6.113509275

> <Activity>
1

$$$$

  SciTegic10102310092D

 32 35  0  0  0  0            999 V2000
    2.5981   -1.5000    0.0000 C   0  0
    1.2990   -0.7500    0.0000 C   0  0
    1.2990    0.7500    0.0000 C   0  0
    0.0000    1.5000    0.0000 C   0  0
    0.0000    3.0008    0.0000 C   0  0
    0.0000    4.5008    0.0000 N   0  0
   -1.2990    0.7500    0.0000 C   0  0
   -1.2990   -0.7500    0.0000 C   0  0
   -2.5981   -1.5000    0.0000 C   0  0
    0.0000   -1.5000    0.0000 C   0  0
    0.0031   -3.0008    0.0000 O   0  0
    1.3039   -3.7494    0.0000 C   0  0
    1.3092   -5.2494    0.0000 C   0  0
    2.6108   -5.9949    0.0000 C   0  0
    3.9073   -5.2404    0.0000 N   0  0
    3.9021   -3.7404    0.0000 C   0  0
    5.1977   -2.9829    0.0000 N   0  0
    5.1903   -1.4820    0.0000 C   0  0
    6.4841   -0.7230    0.0000 C   0  0
    6.4738    0.7770    0.0000 C   0  0
    5.1696    1.5180    0.0000 N   0  0
    5.1592    3.0187    0.0000 C   0  0
    6.4518    3.7798    0.0000 C   0  0
    6.4390    5.2798    0.0000 C   0  0
    5.1337    6.0187    0.0000 C   0  0
    3.8411    5.2577    0.0000 C   0  0
    2.5350    5.9970    0.0000 C   0  0
    1.2296    6.7359    0.0000 N   0  0
    3.8538    3.7577    0.0000 C   0  0
    3.8757    0.7590    0.0000 C   0  0
    3.8861   -0.7410    0.0000 C   0  0
    2.6004   -2.9949    0.0000 N   0  0
  1  2  1  0
  2  3  2  0
  3  4  1  0
  4  5  1  0
  5  6  3  0
  4  7  2  0
  7  8  1  0
  8  9  1  0
  8 10  2  0
 10  2  1  0
 10 11  1  0
 11 12  1  0
 12 13  2  0
 13 14  1  0
 14 15  2  0
 15 16  1  0
 16 17  1  0
 17 18  1  0
 18 19  1  0
 19 20  1  0
 20 21  1  0
 21 22  1  0
 22 23  2  0
 23 24  1  0
 24 25  2  0
 25 26  1  0
 26 27  1  0
 27 28  3  0
 26 29  2  0
 29 22  1  0
 21 30  1  0
 30 31  1  0
 31 18  1  0
 16 32  2  0
 32 12  1  0
M  END
> <Smiles>
Cc1cc(C#N)cc(C)c1Oc1ccnc(NC2CCN(c3cccc(C#N)c3)CC2)n1

> <IC50_uM>
0.772

> <pIC50>
6.1123827

> <Activity>
1

$$$$

  SciTegic10102310092D

 27 29  0  0  0  0            999 V2000
    2.5981   -1.5000    0.0000 C   0  0
    1.2990   -0.7500    0.0000 C   0  0
    1.2990    0.7500    0.0000 C   0  0
    0.0000    1.5000    0.0000 C   0  0
    0.0000    3.0008    0.0000 C   0  0
    0.0000    4.5008    0.0000 N   0  0
   -1.2990    0.7500    0.0000 C   0  0
   -1.2990   -0.7500    0.0000 C   0  0
   -2.5981   -1.5000    0.0000 C   0  0
    0.0000   -1.5000    0.0000 C   0  0
    0.0031   -3.0008    0.0000 O   0  0
    1.3039   -3.7494    0.0000 C   0  0
    1.3092   -5.2494    0.0000 C   0  0
    2.6108   -5.9949    0.0000 C   0  0
    2.6160   -7.4949    0.0000 Cl  0  0
    3.9073   -5.2404    0.0000 N   0  0
    3.9021   -3.7404    0.0000 C   0  0
    5.1977   -2.9829    0.0000 N   0  0
    5.1903   -1.4820    0.0000 C   0  0
    6.4841   -0.7230    0.0000 C   0  0
    6.4738    0.7770    0.0000 C   0  0
    5.1696    1.5180    0.0000 C   0  0
    5.1592    3.0188    0.0000 C   0  0
    5.1488    4.5187    0.0000 N   0  0
    3.8757    0.7590    0.0000 C   0  0
    3.8861   -0.7410    0.0000 C   0  0
    2.6004   -2.9949    0.0000 C   0  0
  1  2  1  0
  2  3  2  0
  3  4  1  0
  4  5  1  0
  5  6  3  0
  4  7  2  0
  7  8  1  0
  8  9  1  0
  8 10  2  0
 10  2  1  0
 10 11  1  0
 11 12  1  0
 12 13  2  0
 13 14  1  0
 14 15  1  0
 14 16  2  0
 16 17  1  0
 17 18  1  0
 18 19  1  0
 19 20  2  0
 20 21  1  0
 21 22  2  0
 22 23  1  0
 23 24  3  0
 22 25  1  0
 25 26  2  0
 26 19  1  0
 17 27  2  0
 27 12  1  0
M  END
> <Smiles>
Cc1cc(C#N)cc(C)c1Oc1cc(Cl)nc(Nc2ccc(C#N)cc2)c1

> <IC50_uM>
0.773

> <pIC50>
6.111820506

> <Activity>
1

$$$$

  SciTegic10102310092D

 14 15  0  0  0  0            999 V2000
    2.5981   -1.5000    0.0000 C   0  0
    1.2990   -0.7500    0.0000 C   0  0
    1.2990    0.7500    0.0000 C   0  0
    0.0000    1.5000    0.0000 C   0  0
   -1.2990    0.7500    0.0000 O   0  0
   -1.2990   -0.7500    0.0000 C   0  0
   -2.5981   -1.5000    0.0000 C   0  0
   -2.5981   -3.0000    0.0000 C   0  0
   -3.8971   -3.7500    0.0000 O   0  0
   -1.2990   -3.7500    0.0000 C   0  0
    0.0000   -3.0000    0.0000 C   0  0
    1.2991   -3.7500    0.0000 O   0  0
    0.0000   -1.5000    0.0000 C   0  0
    0.0000    3.0000    0.0000 O   0  0
  1  2  1  0
  2  3  2  0
  3  4  1  0
  4  5  1  0
  5  6  1  0
  6  7  2  0
  7  8  1  0
  8  9  1  0
  8 10  2  0
 10 11  1  0
 11 12  1  0
  6 13  1  0
 13  2  1  0
 13 11  2  0
  4 14  2  0
M  END
> <Smiles>
CC1=CC(Oc(cc(O)cc2O)c12)=O

> <IC50_uM>
0.776247117

> <pIC50>
6.11

> <Activity>
1

$$$$

  SciTegic10102310092D

 11 11  0  0  0  0            999 V2000
    1.6281   -2.2462    0.0000 C   0  0
    0.7500   -1.0323    0.0000 C   0  0  3  0  0  0
    1.2135    0.3943    0.0000 S   0  0
    0.0000    1.2760    0.0000 S   0  0
   -1.2135    0.3943    0.0000 C   0  0  3  0  0  0
   -2.6394    0.8543    0.0000 C   0  0
   -2.9539    2.3210    0.0000 O   0  0
   -3.7527   -0.1510    0.0000 O   0  0
   -0.7500   -1.0323    0.0000 C   0  0
    3.1202   -2.0921    0.0000 O   0  0
    1.0161   -3.6157    0.0000 O   0  0
  2  1  1  4
  2  3  1  0
  3  4  1  0
  4  5  1  0
  5  6  1  4
  6  7  1  0
  6  8  2  0
  5  9  1  0
  9  2  1  0
  1 10  1  0
  1 11  2  0
M  END
> <Smiles>
C(C1SSC(C(O)=O)C1)(O)=O

> <IC50_uM>
0.776247117

> <pIC50>
6.11

> <Activity>
1

$$$$

  SciTegic10102310092D

 13 14  0  0  0  0            999 V2000
    2.5981   -1.5000    0.0000 N   0  0
    1.2990   -0.7500    0.0000 C   0  0
    1.2990    0.7500    0.0000 N   0  0
    0.0000    1.5000    0.0000 C   0  0
   -1.2990    0.7500    0.0000 N   0  0
   -1.2990   -0.7500    0.0000 C   0  0
   -2.5981   -1.5000    0.0000 C   0  0
   -2.5981   -3.0000    0.0000 C   0  0
   -1.2990   -3.7500    0.0000 C   0  0
   -1.2990   -5.2500    0.0000 Cl  0  0
    0.0000   -3.0000    0.0000 C   0  0
    0.0000   -1.5000    0.0000 C   0  0
    0.0000    3.0000    0.0000 N   0  0
  1  2  1  0
  2  3  2  0
  3  4  1  0
  4  5  2  0
  5  6  1  0
  6  7  2  0
  7  8  1  0
  8  9  2  0
  9 10  1  0
  9 11  1  0
  6 12  1  0
 12  2  1  0
 12 11  2  0
  4 13  1  0
M  END
> <Smiles>
Nc1nc(nc(ccc(Cl)c2)c12)N

> <IC50_uM>
0.776247117

> <pIC50>
6.11

> <Activity>
1

$$$$

  SciTegic10102310092D

 13 14  0  0  0  0            999 V2000
    2.6719    0.7452    0.0000 O   0  0
    1.6852   -0.3846    0.0000 S   0  0
    1.3514    1.0778    0.0000 C   0  0
    0.0000    1.7286    0.0000 C   0  0
   -1.3515    1.0777    0.0000 C   0  0
   -2.4523    2.0983    0.0000 C   0  0
   -3.8856    1.6561    0.0000 C   0  0
   -4.2194    0.1937    0.0000 C   0  0
   -3.1198   -0.8265    0.0000 C   0  0
   -1.6852   -0.3847    0.0000 C   0  0
   -0.7500   -1.5574    0.0000 C   0  0
    0.7500   -1.5574    0.0000 C   0  0
    2.0841   -1.8306    0.0000 O   0  0
  1  2  2  0
  2  3  1  0
  3  4  2  0
  4  5  1  0
  5  6  2  0
  6  7  1  0
  7  8  2  0
  8  9  1  0
  5 10  1  0
 10  9  2  0
 10 11  1  0
 11 12  1  0
 12  2  1  0
  2 13  2  0
M  END
> <Smiles>
O=S1(C=Cc(cccc2)c2CC1)=O

> <IC50_uM>
0.776247117

> <pIC50>
6.11

> <Activity>
1

$$$$

  SciTegic10102310092D

 12 11  0  0  0  0            999 V2000
    3.9000    0.7500    0.0000 P   0  0
    3.9000    2.2500    0.0000 O   0  0
    2.6000    0.0000    0.0000 O   0  0
    1.3000    0.7500    0.0000 C   0  0
    0.0007    0.0004    0.0000 C   0  0
    2.5761    1.5169    0.0000 O   0  0
    2.5773    3.0177    0.0000 C   0  0
    1.2793    3.7696    0.0000 C   0  0
    5.2000    0.0000    0.0000 C   0  0
    5.2000   -1.5000    0.0000 C   0  0
    6.5000    0.7500    0.0000 N   0  0
    7.7992    0.0004    0.0000 O   0  0
  1  2  2  0
  1  3  1  0
  3  4  1  0
  4  5  1  0
  1  6  1  0
  6  7  1  0
  7  8  1  0
  1  9  1  0
  9 10  1  0
  9 11  2  0
 11 12  1  0
M  END
> <Smiles>
P(=O)(OCC)(OCC)\C(\C)=N\O

> <IC50_uM>
0.776247117

> <pIC50>
6.11

> <Activity>
1

$$$$

  SciTegic10102310092D

 12 13  0  0  0  0            999 V2000
    2.2393   -0.8531    0.0000 O   0  0
    0.7500   -1.0323    0.0000 S   0  0
    1.2135    0.3943    0.0000 C   0  0
    0.0000    1.2760    0.0000 C   0  0  3  0  0  0
   -0.4623    2.7009    0.0000 O   0  0
   -1.9623    2.7008    0.0000 C   0  0  3  0  0  0
   -2.8455    3.9111    0.0000 C   0  0
   -4.3370    3.7522    0.0000 C   0  0
   -2.4258    1.2743    0.0000 O   0  0
   -1.2135    0.3943    0.0000 C   0  0  3  0  0  0
   -0.7500   -1.0323    0.0000 C   0  0
    0.1196   -2.3934    0.0000 O   0  0
  1  2  2  0
  2  3  1  0
  4  3  1  4
  4  5  1  0
  5  6  1  0
  6  7  1  4
  7  8  1  0
  6  9  1  0
  4 10  1  0
 10  9  1  4
 10 11  1  0
 11  2  1  0
  2 12  2  0
M  END
> <Smiles>
O=S1(CC(OC(CC)O2)C2C1)=O

> <IC50_uM>
0.776247117

> <pIC50>
6.11

> <Activity>
1

$$$$

  SciTegic10102310092D

 13 14  0  0  0  0            999 V2000
    1.6120   -3.9767    0.0000 C   0  0
    2.7343   -2.9815    0.0000 N   0  0
    4.2010   -3.2956    0.0000 C   0  0
    4.9531   -1.9978    0.0000 C   0  0
    3.9511   -0.8815    0.0000 N   0  0
    4.2566    0.5871    0.0000 C   0  0
    2.5987   -1.5004    0.0000 P   0  0
    1.2990   -0.7500    0.0000 C   0  0
    1.2990    0.7500    0.0000 C   0  0
    0.0000    1.5000    0.0000 C   0  0
   -1.2990    0.7500    0.0000 C   0  0
   -1.2990   -0.7500    0.0000 C   0  0
    0.0000   -1.5000    0.0000 C   0  0
  1  2  1  0
  2  3  1  0
  3  4  1  0
  4  5  1  0
  5  6  1  0
  5  7  1  0
  7  2  1  0
  7  8  1  0
  8  9  2  0
  9 10  1  0
 10 11  2  0
 11 12  1  0
 12 13  2  0
 13  8  1  0
M  END
> <Smiles>
CN1CCN(C)P1c2ccccc2

> <IC50_uM>
0.776247117

> <pIC50>
6.11

> <Activity>
1

$$$$

  SciTegic10102310092D

 14 16  0  0  0  0            999 V2000
   -1.8834    1.9263    0.0000 O   0  0
   -0.3837    1.8983    0.0000 C   0  0
    0.0000    3.4735    0.0000 N   0  0
    0.4645    2.5243    0.0000 C   0  0
    1.9086    2.9298    0.0000 O   0  0
    0.5654    1.4338    0.0000 N   0  0
    0.6462    0.0000    0.0000 C   0  0  3  0  0  0
    2.0195   -0.8078    0.0000 C   0  0
    1.2924   -2.1810    0.0000 C   0  0
   -0.7472   -0.7270    0.0000 C   0  0
   -1.5146   -2.0598    0.0000 C   0  0
    0.0000   -1.4944    0.0000 C   0  0  3  0  0  0
    0.0000    0.0202    0.0000 N   0  0
   -0.1618    4.9647    0.0000 C   0  0
  1  2  2  0
  2  3  1  0
  3  4  1  0
  4  5  2  0
  4  6  1  0
  6  7  1  0
  7  8  1  4
  8  9  1  0
  7 10  1  0
 10 11  1  0
 12 11  1  4
 12  9  1  0
 12 13  1  0
 13  2  1  0
 13  6  1  0
  3 14  1  0
M  END
> <Smiles>
O=C1N(C(=O)N2C(CC3)CCC3N12)C

> <IC50_uM>
0.776247117

> <pIC50>
6.11

> <Activity>
1

$$$$

  SciTegic10102310092D

 12 12  0  0  0  0            999 V2000
    1.2626   -2.2300    0.0000 N   0  0
    1.2990   -0.7500    0.0000 P   0  0  3  0  0  0
    1.2990    0.7500    0.0000 O   0  0
    0.0000    1.5000    0.0000 C   0  0
   -1.2990    0.7500    0.0000 C   0  0
   -1.2636    2.2496    0.0000 C   0  0
   -2.5801   -0.0303    0.0000 C   0  0
   -1.2990   -0.7500    0.0000 C   0  0
    0.0000   -1.5000    0.0000 N   0  0
    2.5793    0.0316    0.0000 O   0  0
   -0.0361   -2.9805    0.0000 C   0  0
    2.5617   -2.9798    0.0000 C   0  0
  2  1  1  4
  2  3  1  0
  3  4  1  0
  4  5  1  0
  5  6  1  0
  5  7  1  0
  5  8  1  0
  8  9  1  0
  9  2  1  0
  2 10  2  0
  1 11  1  0
  1 12  1  0
M  END
> <Smiles>
N(P1(OCC(C)(C)CN1)=O)(C)C

> <IC50_uM>
0.776247117

> <pIC50>
6.11

> <Activity>
1

$$$$

  SciTegic10102310092D

 14 15  0  0  0  0            999 V2000
   -0.6890   -4.0818    0.0000 C   0  0
    0.3114   -2.9665    0.0000 C   0  0
    1.8032   -3.1233    0.0000 N   0  0
    2.4133   -1.7530    0.0000 C   0  0
    1.2990   -0.7500    0.0000 N   0  0
    1.2990    0.7500    0.0000 C   0  0
    0.0000    1.5000    0.0000 N   0  0
    0.0000    3.0000    0.0000 C   0  0
   -1.2990    0.7500    0.0000 N   0  0
   -1.2990   -0.7500    0.0000 N   0  0
    2.5981    1.5000    0.0000 O   0  0
    0.0000   -1.5000    0.0000 C   0  0
   -0.2237   -5.5078    0.0000 O   0  0
   -2.1567   -3.7722    0.0000 N   0  0
  1  2  1  0
  2  3  1  0
  3  4  2  0
  4  5  1  0
  5  6  1  0
  6  7  1  0
  7  8  1  0
  7  9  1  0
  9 10  2  0
  6 11  2  0
  5 12  1  0
 12  2  2  0
 12 10  1  0
  1 13  2  0
  1 14  1  0
M  END
> <Smiles>
C(c1ncn(C(N(C)N=N2)=O)c12)(=O)N

> <IC50_uM>
0.776247117

> <pIC50>
6.11

> <Activity>
1

$$$$

  SciTegic10102310092D

 14 16  0  0  0  0            999 V2000
    2.5981   -1.5000    0.0000 O   0  0
    1.2990   -0.7500    0.0000 C   0  0
    1.2990    0.7500    0.0000 C   0  0
    0.0000    1.5000    0.0000 C   0  0
   -1.2990    0.7500    0.0000 C   0  0
   -1.2990   -0.7500    0.0000 C   0  0
   -2.4133   -1.7530    0.0000 O   0  0
   -1.8032   -3.1233    0.0000 C   0  0  3  0  0  0
   -2.1153   -4.5884    0.0000 C   0  0
   -0.8163   -5.3384    0.0000 C   0  0
   -0.6594   -6.8302    0.0000 O   0  0
    0.2985   -4.3347    0.0000 O   0  0
   -0.3114   -2.9665    0.0000 C   0  0  3  0  0  0
    0.0000   -1.5000    0.0000 C   0  0
  1  2  2  0
  2  3  1  0
  3  4  1  0
  4  5  1  0
  5  6  1  0
  6  7  1  0
  8  7  1  4
  8  9  1  0
  9 10  1  0
 10 11  2  0
 10 12  1  0
  8 13  1  0
 13 12  1  4
  6 14  2  0
 14  2  1  0
 14 13  1  0
M  END
> <Smiles>
O=C1CCCC(OC(CC(=O)O2)C23)=C13

> <IC50_uM>
0.776247117

> <pIC50>
6.11

> <Activity>
1

$$$$

  SciTegic10102310092D

 13 14  0  0  0  0            999 V2000
    2.5987   -1.5006    0.0000 P   0  0  3  0  0  0
    1.2990   -0.7500    0.0000 C   0  0
    1.2990    0.7500    0.0000 C   0  0
    0.0000    1.5000    0.0000 C   0  0
   -1.2990    0.7500    0.0000 C   0  0
   -1.2990   -0.7500    0.0000 C   0  0
    0.0000   -1.5000    0.0000 C   0  0
    2.5956   -3.0006    0.0000 O   0  0
    2.7022   -0.0406    0.0000 C   0  0
    4.1697    0.2696    0.0000 C   0  0  3  0  0  0
    4.7813    1.6393    0.0000 C   0  0
    4.9183   -1.0302    0.0000 C   0  0
    3.9134   -2.1439    0.0000 C   0  0
  1  2  1  4
  2  3  2  0
  3  4  1  0
  4  5  2  0
  5  6  1  0
  6  7  2  0
  7  2  1  0
  1  8  2  0
  1  9  1  0
  9 10  1  0
 10 11  1  4
 10 12  1  0
 12 13  1  0
 13  1  1  0
M  END
> <Smiles>
P1(c2ccccc2)(=O)CC(C)CC1

> <IC50_uM>
0.776247117

> <pIC50>
6.11

> <Activity>
1

$$$$

  SciTegic10102310092D

 14 15  0  0  0  0            999 V2000
    1.2990   -0.7500    0.0000 C   0  0
    1.2990    0.7500    0.0000 C   0  0
    2.4133    1.7530    0.0000 O   0  0
    1.8032    3.1233    0.0000 C   0  0
    0.3114    2.9665    0.0000 N   0  0
    2.5496    4.4224    0.0000 C   0  0
    1.7973    5.7210    0.0000 C   0  0
    2.5450    7.0224    0.0000 O   0  0
    1.7931    8.3203    0.0000 C   0  0
    0.2973    5.7184    0.0000 O   0  0
    0.0000    1.5000    0.0000 C   0  0
   -1.2990    0.7500    0.0000 C   0  0
   -1.2990   -0.7500    0.0000 C   0  0
    0.0000   -1.5000    0.0000 C   0  0
  1  2  2  0
  2  3  1  0
  3  4  1  0
  4  5  2  0
  4  6  1  0
  6  7  1  0
  7  8  1  0
  8  9  1  0
  7 10  2  0
  2 11  1  0
 11  5  1  0
 11 12  2  0
 12 13  1  0
 13 14  2  0
 14  1  1  0
M  END
> <Smiles>
c1c(oc(n2)CC(OC)=O)c2ccc1

> <IC50_uM>
0.776247117

> <pIC50>
6.11

> <Activity>
1

$$$$

  SciTegic10102310092D

 13 14  0  0  0  0            999 V2000
    1.2990   -0.7500    0.0000 C   0  0
    1.2990    0.7500    0.0000 C   0  0
    2.7248    1.2135    0.0000 S   0  0
    3.6065    0.0000    0.0000 C   0  0
    2.7248   -1.2135    0.0000 C   0  0
    0.0000    1.5000    0.0000 N   0  0
   -1.2990    0.7500    0.0000 C   0  0
   -1.2990   -0.7500    0.0000 C   0  0
   -2.5972   -1.5031    0.0000 C   0  0
   -3.8976   -0.7554    0.0000 N   0  0
   -2.5951   -3.0031    0.0000 O   0  0
    0.0000   -1.5000    0.0000 C   0  0
    0.0000    3.0000    0.0000 C   0  0
  1  2  2  0
  2  3  1  0
  3  4  1  0
  4  5  2  0
  5  1  1  0
  2  6  1  0
  6  7  1  0
  7  8  2  0
  8  9  1  0
  9 10  1  0
  9 11  2  0
  8 12  1  0
 12  1  1  0
  6 13  1  0
M  END
> <Smiles>
c12c(scc1)N(C=C(C(N)=O)C2)C

> <IC50_uM>
0.776247117

> <pIC50>
6.11

> <Activity>
1

$$$$

  SciTegic10102310092D

 14 14  0  0  0  0            999 V2000
    1.2990   -0.7500    0.0000 C   0  0
    2.5973   -1.5031    0.0000 C   0  0
    2.5951   -3.0031    0.0000 C   0  0
    1.2990    0.7500    0.0000 C   0  0
    2.5988    1.5004    0.0000 C   0  0
    3.8978    2.2504    0.0000 N   0  0
    0.0000    1.5000    0.0000 C   0  0
    0.0000    3.0000    0.0000 O   0  0
   -1.2990    0.7500    0.0000 N   0  0
   -1.2990   -0.7500    0.0000 C   0  0
   -2.5981   -1.5000    0.0000 O   0  0
    0.0000   -1.5000    0.0000 C   0  0
    0.0000   -3.0008    0.0000 C   0  0
    0.0000   -4.5008    0.0000 N   0  0
  1  2  1  0
  2  3  1  0
  1  4  1  0
  4  5  1  0
  5  6  3  0
  4  7  2  0
  7  8  1  0
  7  9  1  0
  9 10  1  0
 10 11  1  0
 10 12  2  0
 12  1  1  0
 12 13  1  0
 13 14  3  0
M  END
> <Smiles>
C1(CC)C(C#N)=C(O)NC(O)=C1C#N

> <IC50_uM>
0.776247117

> <pIC50>
6.11

> <Activity>
1

$$$$

  SciTegic10102310092D

 13 13  0  0  0  0            999 V2000
    1.2990   -0.7500    0.0000 C   0  0
    1.2990    0.7500    0.0000 C   0  0
    2.5972    1.5031    0.0000 C   0  0
    2.5951    3.0039    0.0000 N   0  0
    3.8933    3.7570    0.0000 N   0  0
    3.8912    5.2578    0.0000 C   0  0
    2.5908    6.0056    0.0000 C   0  0
    5.1886    6.0105    0.0000 S   0  0
    3.8976    0.7554    0.0000 O   0  0
    0.0000    1.5000    0.0000 C   0  0
   -1.2990    0.7500    0.0000 C   0  0
   -1.2990   -0.7500    0.0000 N   0  0
    0.0000   -1.5000    0.0000 C   0  0
  1  2  2  0
  2  3  1  0
  3  4  1  0
  4  5  1  0
  5  6  1  0
  6  7  1  0
  6  8  2  0
  3  9  2  0
  2 10  1  0
 10 11  2  0
 11 12  1  0
 12 13  2  0
 13  1  1  0
M  END
> <Smiles>
c1c(C(NNC(C)=S)=O)ccnc1

> <IC50_uM>
0.776247117

> <pIC50>
6.11

> <Activity>
1

$$$$

  SciTegic10102310092D

 11 11  0  0  0  0            999 V2000
    1.2990   -0.7500    0.0000 C   0  0
    1.2990    0.7500    0.0000 C   0  0
    0.0000    1.5000    0.0000 C   0  0  3  0  0  0
    0.0031    3.0008    0.0000 C   0  0
    1.3039    3.7494    0.0000 N   0  0
    1.3070    5.2494    0.0000 C   0  0
    2.6016    2.9971    0.0000 C   0  0
   -1.2990    0.7500    0.0000 C   0  0  3  0  0  0
   -2.5981    1.5000    0.0000 O   0  0
   -1.2990   -0.7500    0.0000 C   0  0
    0.0000   -1.5000    0.0000 C   0  0
  1  2  1  0
  2  3  1  0
  3  4  1  4
  4  5  1  0
  5  6  1  0
  5  7  1  0
  3  8  1  0
  8  9  1  4
  8 10  1  0
 10 11  1  0
 11  1  1  0
M  END
> <Smiles>
C1CC(CN(C)C)C(O)CC1

> <IC50_uM>
0.776247117

> <pIC50>
6.11

> <Activity>
1

$$$$

  SciTegic10102310092D

 14 15  0  0  0  0            999 V2000
    4.9183   -1.0302    0.0000 C   0  0
    3.9134   -2.1439    0.0000 N   0  0
    4.1978   -3.6166    0.0000 C   0  0
    2.5987   -1.5006    0.0000 C   0  0  3  0  0  0
    1.2990   -0.7500    0.0000 C   0  0  3  0  0  0
    1.2990    0.7500    0.0000 C   0  0
    0.0000    1.5000    0.0000 C   0  0
   -1.2990    0.7500    0.0000 C   0  0
   -1.2990   -0.7500    0.0000 C   0  0
    0.0000   -1.5000    0.0000 C   0  0
    2.5956   -3.0006    0.0000 O   0  0
    2.7022   -0.0406    0.0000 C   0  0
    4.1697    0.2696    0.0000 C   0  0
    6.4099   -1.1887    0.0000 O   0  0
  1  2  1  0
  2  3  1  0
  2  4  1  0
  4  5  1  0
  5  6  1  4
  6  7  1  0
  7  8  2  0
  8  9  1  0
  9 10  2  0
 10  5  1  0
  4 11  1  4
  4 12  1  0
 12 13  1  0
 13  1  1  0
  1 14  2  0
M  END
> <Smiles>
C1(N(C)C(C2CC=CC=C2)(O)CC1)=O

> <IC50_uM>
0.776247117

> <pIC50>
6.11

> <Activity>
1

$$$$

  SciTegic10102310092D

 13 14  0  0  0  0            999 V2000
    1.2990   -0.7500    0.0000 C   0  0
    1.2990    0.7500    0.0000 C   0  0
    2.5981    1.5000    0.0000 N   0  0
    2.5981    3.0000    0.0000 C   0  0
    1.2990    3.7500    0.0000 C   0  0
    0.0000    3.0000    0.0000 N   0  0
    0.0000    1.5000    0.0000 C   0  0
   -1.2990    0.7500    0.0000 N   0  0
   -1.2990   -0.7500    0.0000 C   0  0
   -2.5972   -1.5031    0.0000 S   0  0
   -2.5951   -3.0031    0.0000 C   0  0
    0.0000   -1.5000    0.0000 N   0  0
    2.5981   -1.5000    0.0000 O   0  0
  1  2  2  0
  2  3  1  0
  3  4  2  0
  4  5  1  0
  5  6  2  0
  2  7  1  0
  7  6  1  0
  7  8  2  0
  8  9  1  0
  9 10  1  0
 10 11  1  0
  9 12  2  0
 12  1  1  0
  1 13  1  0
M  END
> <Smiles>
c1(c(nccn2)c2nc(SC)n1)O

> <IC50_uM>
0.776247117

> <pIC50>
6.11

> <Activity>
1

$$$$

  SciTegic10102310092D

 17 18  0  0  0  0            999 V2000
    5.2526   -1.3618    0.0000 O   0  0
    3.8990   -0.7455    0.0000 C   0  0  3  0  0  0
    2.6003   -1.4977    0.0000 C   0  0
    1.2990   -0.7500    0.0000 N   0  0
    1.2990    0.7500    0.0000 C   0  0
    0.0000    1.5000    0.0000 C   0  0
   -1.2990    0.7500    0.0000 C   0  0
   -2.5981    1.5000    0.0000 O   0  0
   -1.2990   -0.7500    0.0000 N   0  0
    0.0000    3.0000    0.0000 C   0  0
    0.0000   -1.5000    0.0000 C   0  0
    0.0000   -3.0000    0.0000 O   0  0
    4.0317    0.7359    0.0000 O   0  0
    5.4979    1.0528    0.0000 C   0  0
    6.2524   -0.2436    0.0000 C   0  0  3  0  0  0
    7.7426   -0.3981    0.0000 C   0  0
    8.3555   -1.7672    0.0000 O   0  0
  1  2  1  0
  2  3  1  4
  3  4  1  0
  4  5  1  0
  5  6  2  0
  6  7  1  0
  7  8  2  0
  7  9  1  0
  6 10  1  0
  4 11  1  0
 11  9  1  0
 11 12  2  0
  2 13  1  0
 13 14  1  0
 14 15  1  0
 15  1  1  0
 15 16  1  4
 16 17  1  0
M  END
> <Smiles>
O1C(CN(C=C(C(=O)N2)C)C2=O)OCC1CO

> <IC50_uM>
0.776247117

> <pIC50>
6.11

> <Activity>
1

$$$$

  SciTegic10102310092D

 25 27  0  0  0  0            999 V2000
   -0.6923   -4.0811    0.0000 C   0  0
    0.3114   -2.9665    0.0000 C   0  0
    1.8032   -3.1233    0.0000 N   0  0
    2.4133   -1.7530    0.0000 C   0  0
    3.8794   -1.4442    0.0000 C   0  0
    4.8823   -2.5608    0.0000 C   0  0
    6.3509   -2.2515    0.0000 C   0  0
    7.3538   -3.3681    0.0000 C   0  0
    8.8224   -3.0588    0.0000 C   0  0
    9.8253   -4.1753    0.0000 O   0  0
   11.2939   -3.8660    0.0000 C   0  0
   11.7596   -2.4402    0.0000 O   0  0
   12.2967   -4.9826    0.0000 C   0  0
   13.7650   -4.6756    0.0000 C   0  0
   14.7651   -5.7936    0.0000 C   0  0
   14.2969   -7.2187    0.0000 C   0  0
   12.8286   -7.5258    0.0000 C   0  0
   11.8286   -6.4078    0.0000 C   0  0
    1.2990   -0.7500    0.0000 N   0  0
    1.2990    0.7500    0.0000 N   0  0
    0.0000    1.5000    0.0000 C   0  0
    0.0000    3.0000    0.0000 Cl  0  0
   -1.2990    0.7500    0.0000 C   0  0
   -1.2990   -0.7500    0.0000 C   0  0
    0.0000   -1.5000    0.0000 C   0  0
  1  2  1  0
  2  3  1  0
  3  4  2  0
  4  5  1  0
  5  6  1  0
  6  7  1  0
  7  8  1  0
  8  9  1  0
  9 10  1  0
 10 11  1  0
 11 12  2  0
 11 13  1  0
 13 14  2  0
 14 15  1  0
 15 16  2  0
 16 17  1  0
 17 18  2  0
 18 13  1  0
  4 19  1  0
 19 20  1  0
 20 21  2  0
 21 22  1  0
 21 23  1  0
 23 24  2  0
 24 25  1  0
 25  2  2  0
 25 19  1  0
M  END
> <Smiles>
Cc1nc(CCCCCOC(=O)c2ccccc2)n2nc(Cl)ccc12

> <IC50_uM>
0.78

> <pIC50>
6.107905397

> <Activity>
1

$$$$

  SciTegic10102310092D

 30 32  0  0  0  0            999 V2000
    3.1676   -7.5606    0.0000 C   0  0
    1.7006   -7.2475    0.0000 C   0  0
    0.6960   -8.3614    0.0000 C   0  0
   -0.7710   -8.0483    0.0000 C   0  0
   -1.7756   -9.1622    0.0000 C   0  0
   -1.2333   -6.6213    0.0000 C   0  0
   -0.2287   -5.5075    0.0000 C   0  0
   -0.6913   -4.0797    0.0000 S   0  0
   -2.1584   -3.7671    0.0000 O   0  0
   -1.6957   -5.1937    0.0000 O   0  0
    0.3114   -2.9665    0.0000 C   0  0
    1.8032   -3.1233    0.0000 C   0  0
    2.5551   -4.4192    0.0000 C   0  0
    1.8074   -5.7196    0.0000 O   0  0
    4.0559   -4.4171    0.0000 N   0  0
    4.8090   -5.7153    0.0000 C   0  0
    6.3098   -5.7131    0.0000 C   0  0
    7.0629   -7.0113    0.0000 C   0  0
    6.3152   -8.3116    0.0000 N   0  0
    8.5629   -7.0091    0.0000 O   0  0
    2.4133   -1.7530    0.0000 N   0  0
    1.2990   -0.7500    0.0000 C   0  0
    1.2990    0.7500    0.0000 C   0  0
    0.0000    1.5000    0.0000 C   0  0
   -1.2990    0.7500    0.0000 C   0  0
   -2.5981    1.5000    0.0000 Cl  0  0
   -1.2990   -0.7500    0.0000 C   0  0
   -2.5981   -1.5000    0.0000 F   0  0
    0.0000   -1.5000    0.0000 C   0  0
    1.2383   -5.8206    0.0000 C   0  0
  1  2  1  0
  2  3  2  0
  3  4  1  0
  4  5  1  0
  4  6  2  0
  6  7  1  0
  7  8  1  0
  8  9  2  0
  8 10  2  0
  8 11  1  0
 11 12  2  0
 12 13  1  0
 13 14  2  0
 13 15  1  0
 15 16  1  0
 16 17  1  0
 17 18  1  0
 18 19  1  0
 18 20  2  0
 12 21  1  0
 21 22  1  0
 22 23  2  0
 23 24  1  0
 24 25  2  0
 25 26  1  0
 25 27  1  0
 27 28  1  0
 27 29  2  0
 29 11  1  0
 29 22  1  0
  7 30  2  0
 30  2  1  0
M  END
> <Smiles>
Cc1cc(C)cc(S(=O)(=O)c2c(C(=O)NCCC(N)=O)[nH]c3ccc(Cl)c(F)c23)c1

> <IC50_uM>
0.783

> <pIC50>
6.106238238

> <Activity>
1

$$$$

  SciTegic10102310092D

 34 36  0  0  0  0            999 V2000
    9.0964    0.7636    0.0000 C   0  0
    9.0990   -0.7364    0.0000 C   0  0
    7.8003   -1.4887    0.0000 C   0  0
    7.8015   -2.9895    0.0000 C   0  0
    6.5028   -3.7418    0.0000 C   0  0
    6.5040   -5.2426    0.0000 C   0  0
    7.8039   -5.9911    0.0000 O   0  0
    5.2053   -5.9949    0.0000 N   0  0
    5.2065   -7.4957    0.0000 C   0  0
    6.5077   -8.2420    0.0000 C   0  0
    6.5119   -9.7420    0.0000 C   0  0
    5.2150  -10.4957    0.0000 C   0  0
    5.2193  -11.9964    0.0000 C   0  0
    6.5193  -12.7449    0.0000 C   0  0
    6.5212  -14.2449    0.0000 C   0  0
    5.2231  -14.9965    0.0000 C   0  0
    5.2219  -16.4974    0.0000 O   0  0
    3.9220  -17.2476    0.0000 C   0  0
    3.9208  -18.7484    0.0000 C   0  0
    2.6217  -19.4982    0.0000 O   0  0
    5.2195  -19.4990    0.0000 O   0  0
    3.9231  -14.2482    0.0000 C   0  0
    3.9212  -12.7482    0.0000 C   0  0
    3.9139   -9.7494    0.0000 C   0  0
    3.9096   -8.2494    0.0000 C   0  0
    2.6084   -7.5031    0.0000 Cl  0  0
   10.4003   -1.4841    0.0000 C   0  0
   10.4004   -2.9842    0.0000 C   0  0
   11.6994   -3.7342    0.0000 C   0  0
   12.9985   -2.9841    0.0000 C   0  0
   14.2975   -3.7341    0.0000 C   0  0
   12.9984   -1.4841    0.0000 C   0  0
   11.6994   -0.7342    0.0000 C   0  0
   11.6994    0.7658    0.0000 Cl  0  0
  1  2  1  0
  2  3  2  0
  3  4  1  0
  4  5  1  0
  5  6  1  0
  6  7  2  0
  6  8  1  0
  8  9  1  0
  9 10  2  0
 10 11  1  0
 11 12  2  0
 12 13  1  0
 13 14  2  0
 14 15  1  0
 15 16  2  0
 16 17  1  0
 17 18  1  0
 18 19  1  0
 19 20  2  0
 19 21  1  0
 16 22  1  0
 22 23  2  0
 23 13  1  0
 12 24  1  0
 24 25  2  0
 25  9  1  0
 25 26  1  0
  2 27  1  0
 27 28  2  0
 28 29  1  0
 29 30  2  0
 30 31  1  0
 30 32  1  0
 32 33  2  0
 33 27  1  0
 33 34  1  0
M  END
> <Smiles>
C/C(=C/CCC(=O)Nc1ccc(-c2ccc(OCC(=O)O)cc2)cc1Cl)c1ccc(C)cc1Cl

> <IC50_uM>
0.785

> <pIC50>
6.105130343

> <Activity>
1

$$$$

  SciTegic10102310092D

 33 36  0  0  0  0            999 V2000
    2.5981   -1.5000    0.0000 C   0  0
    1.2990   -0.7500    0.0000 C   0  0
    1.2990    0.7500    0.0000 C   0  0
    2.5972    1.5031    0.0000 O   0  0
    2.5951    3.0039    0.0000 C   0  0
    1.2934    3.7495    0.0000 C   0  0
    1.2883    5.2495    0.0000 C   0  0
    2.5847    6.0040    0.0000 C   0  0
    3.8863    5.2585    0.0000 C   0  0
    3.8915    3.7585    0.0000 C   0  0
    5.1954    3.0153    0.0000 O   0  0
    6.4915    3.7721    0.0000 C   0  0
    7.7954    3.0289    0.0000 C   0  0
    9.0914    3.7857    0.0000 N   0  0
    9.0810    5.2858    0.0000 C   0  0
   10.3748    6.0448    0.0000 C   0  0
   11.6791    5.3038    0.0000 C   0  0
   12.9729    6.0629    0.0000 O   0  0
   11.6895    3.8039    0.0000 N   0  0
   10.3957    3.0449    0.0000 C   0  0
   10.4062    1.5449    0.0000 O   0  0
    0.0000    1.5000    0.0000 C   0  0
    0.0000    3.0000    0.0000 C   0  0
   -1.2990    0.7500    0.0000 C   0  0
   -2.5981    1.5000    0.0000 C   0  0
   -3.8971    0.7500    0.0000 C   0  0
   -5.1969    1.5004    0.0000 C   0  0
   -6.4959    2.2504    0.0000 N   0  0
   -3.8971   -0.7500    0.0000 C   0  0
   -2.5981   -1.5000    0.0000 C   0  0
   -1.2990   -0.7500    0.0000 C   0  0
    0.0000   -1.5000    0.0000 C   0  0
    0.0000   -3.0000    0.0000 C   0  0
  1  2  1  0
  2  3  2  0
  3  4  1  0
  4  5  1  0
  5  6  2  0
  6  7  1  0
  7  8  2  0
  8  9  1  0
  9 10  2  0
 10  5  1  0
 10 11  1  0
 11 12  1  0
 12 13  1  0
 13 14  1  0
 14 15  1  0
 15 16  2  0
 16 17  1  0
 17 18  2  0
 17 19  1  0
 19 20  1  0
 20 14  1  0
 20 21  2  0
  3 22  1  0
 22 23  1  0
 22 24  2  0
 24 25  1  0
 25 26  2  0
 26 27  1  0
 27 28  3  0
 26 29  1  0
 29 30  2  0
 30 31  1  0
 31 24  1  0
 31 32  2  0
 32  2  1  0
 32 33  1  0
M  END
> <Smiles>
Cc1c(Oc2ccccc2OCCn2ccc(=O)[nH]c2=O)c(C)c2cc(C#N)ccc2c1C

> <IC50_uM>
0.79

> <pIC50>
6.102372909

> <Activity>
1

$$$$

  SciTegic10102310092D

 33 36  0  0  0  0            999 V2000
    2.5981   -1.5000    0.0000 C   0  0
    1.2990   -0.7500    0.0000 C   0  0
    1.2990    0.7500    0.0000 C   0  0
    0.0000    1.5000    0.0000 C   0  0
    0.0000    3.0008    0.0000 C   0  0
    0.0000    4.5008    0.0000 N   0  0
   -1.2990    0.7500    0.0000 C   0  0
   -1.2990   -0.7500    0.0000 C   0  0
   -2.5981   -1.5000    0.0000 C   0  0
    0.0000   -1.5000    0.0000 C   0  0
    0.0031   -3.0008    0.0000 O   0  0
    1.3039   -3.7494    0.0000 C   0  0
    2.6005   -2.9949    0.0000 N   0  0
    3.9021   -3.7404    0.0000 C   0  0
    5.2008   -2.9882    0.0000 N   0  0
    6.5021   -3.7360    0.0000 C   0  0
    7.8012   -2.9860    0.0000 C   0  0
    9.1002   -3.7360    0.0000 C   0  0
    9.1002   -5.2360    0.0000 N   0  0
   10.3984   -5.9891    0.0000 C   0  0
   10.3963   -7.4900    0.0000 C   0  0
   11.6927   -8.2445    0.0000 C   0  0
   11.6875   -9.7445    0.0000 C   0  0
   10.3859  -10.4900    0.0000 C   0  0
   10.3807  -11.9900    0.0000 Cl  0  0
    9.0894   -9.7355    0.0000 C   0  0
    9.0946   -8.2355    0.0000 C   0  0
    7.8012   -5.9860    0.0000 C   0  0
    6.5021   -5.2360    0.0000 C   0  0
    3.9073   -5.2404    0.0000 N   0  0
    2.6108   -5.9949    0.0000 C   0  0
    1.3092   -5.2494    0.0000 C   0  0
    0.0128   -6.0039    0.0000 Br  0  0
  1  2  1  0
  2  3  2  0
  3  4  1  0
  4  5  1  0
  5  6  3  0
  4  7  2  0
  7  8  1  0
  8  9  1  0
  8 10  2  0
 10  2  1  0
 10 11  1  0
 11 12  1  0
 12 13  2  0
 13 14  1  0
 14 15  1  0
 15 16  1  0
 16 17  1  0
 17 18  1  0
 18 19  1  0
 19 20  1  0
 20 21  1  0
 21 22  2  0
 22 23  1  0
 23 24  2  0
 24 25  1  0
 24 26  1  0
 26 27  2  0
 27 21  1  0
 19 28  1  0
 28 29  1  0
 29 16  1  0
 14 30  2  0
 30 31  1  0
 31 32  2  0
 32 12  1  0
 32 33  1  0
M  END
> <Smiles>
Cc1cc(C#N)cc(C)c1Oc1nc(NC2CCN(Cc3ccc(Cl)cc3)CC2)ncc1Br

> <IC50_uM>
0.793

> <pIC50>
6.100726813

> <Activity>
1

$$$$

  SciTegic10102310092D

 14 15  0  0  0  0            999 V2000
   -1.1509   -2.6325    0.0000 C   0  0
    0.3114   -2.9665    0.0000 C   0  0
    1.8032   -3.1233    0.0000 O   0  0
    2.4133   -1.7530    0.0000 N   0  0
    3.8794   -1.4442    0.0000 C   0  0
    4.8818   -2.5602    0.0000 C   0  0
    1.2990   -0.7500    0.0000 C   0  0  3  0  0  0
    1.2990    0.7500    0.0000 C   0  0
    0.0000    1.5000    0.0000 C   0  0  3  0  0  0
    0.0000    3.0000    0.0000 C   0  0
   -1.2990    0.7500    0.0000 C   0  0
   -1.2990   -0.7500    0.0000 C   0  0
    0.0000   -1.5000    0.0000 C   0  0  3  0  0  0
    0.7960   -4.3861    0.0000 C   0  0
  1  2  1  0
  2  3  1  0
  3  4  1  0
  4  5  1  0
  5  6  1  0
  4  7  1  0
  7  8  1  4
  8  9  1  0
  9 10  1  4
  9 11  1  0
 11 12  1  0
  7 13  1  0
 13  2  1  0
 13 12  1  4
  2 14  1  0
M  END
> <Smiles>
CC1(ON(CC)C(CC(C)CC2)C12)C

> <IC50_uM>
0.794328235

> <pIC50>
6.1

> <Activity>
1

$$$$

  SciTegic10102310092D

 15 16  0  0  0  0            999 V2000
    2.5973   -1.5031    0.0000 C   0  0
    1.2990   -0.7500    0.0000 C   0  0
    1.2990    0.7500    0.0000 C   0  0
    0.0000    1.5000    0.0000 C   0  0
   -1.2990    0.7500    0.0000 C   0  0
   -1.2990   -0.7500    0.0000 C   0  0
    0.0000   -1.5000    0.0000 C   0  0
    2.5951   -3.0039    0.0000 N   0  0
    1.2935   -3.7495    0.0000 N   0  0
    1.2883   -5.2495    0.0000 C   0  0
    2.5847   -6.0040    0.0000 C   0  0
    3.8864   -5.2585    0.0000 C   0  0
    3.8915   -3.7585    0.0000 C   0  0
    5.1932   -3.0130    0.0000 O   0  0
   -0.0133   -5.9950    0.0000 C   0  0
  1  2  1  0
  2  3  2  0
  3  4  1  0
  4  5  2  0
  5  6  1  0
  6  7  2  0
  7  2  1  0
  1  8  1  0
  8  9  1  0
  9 10  2  0
 10 11  1  0
 11 12  2  0
 12 13  1  0
 13  8  1  0
 13 14  2  0
 10 15  1  0
M  END
> <Smiles>
C(c1ccccc1)N2N=C(C=CC2=O)C

> <IC50_uM>
0.794328235

> <pIC50>
6.1

> <Activity>
1

$$$$

  SciTegic10102310092D

 14 15  0  0  0  0            999 V2000
   -3.4218   -2.6295    0.0000 C   0  0
   -3.8909   -1.2065    0.0000 N   0  0
   -5.3236   -0.7540    0.0000 C   0  0
   -5.3236    0.7390    0.0000 C   0  0
   -3.8909    1.2065    0.0000 O   0  0
   -3.0162    0.0000    0.0000 C   0  0
   -2.2621    1.2970    0.0000 C   0  0
   -0.7540    1.2970    0.0000 C   0  0
    0.0000    0.0000    0.0000 N   0  0
    1.5000    0.0000    0.0000 C   0  0
   -0.7540   -1.2970    0.0000 C   0  0
   -2.2621   -1.2970    0.0000 C   0  0
   -4.4205   -3.7498    0.0000 C   0  0
   -3.9508   -5.1744    0.0000 O   0  0
  1  2  1  0
  2  3  1  0
  3  4  1  0
  4  5  1  0
  5  6  1  0
  6  2  1  0
  6  7  1  0
  7  8  1  0
  8  9  1  0
  9 10  1  0
  9 11  1  0
 11 12  1  0
 12  6  1  0
  1 13  1  0
 13 14  1  0
M  END
> <Smiles>
C(N1CCOC12CCN(C)CC2)CO

> <IC50_uM>
0.794328235

> <pIC50>
6.1

> <Activity>
1

$$$$

  SciTegic10102310092D

 14 13  0  0  0  0            999 V2000
   10.3999    0.0000    0.0000 C   0  0
    9.0999    0.7500    0.0000 C   0  0
    7.7999    0.0000    0.0000 C   0  0
    6.5000    0.7500    0.0000 C   0  0
    5.2000    0.0000    0.0000 C   0  0
    3.9000    0.7500    0.0000 C   0  0
    2.6000    0.0000    0.0000 N   0  0
    1.3000    0.7500    0.0000 C   0  0
    0.0007    0.0004    0.0000 O   0  0
    1.3000    2.2500    0.0000 C   0  0
   11.6999    0.7500    0.0000 N   0  0
   12.9999    0.0000    0.0000 C   0  0
   14.2992    0.7496    0.0000 O   0  0
   12.9999   -1.5000    0.0000 C   0  0
  1  2  1  0
  2  3  1  0
  3  4  1  0
  4  5  1  0
  5  6  1  0
  6  7  1  0
  7  8  1  0
  8  9  2  0
  8 10  1  0
  1 11  1  0
 11 12  1  0
 12 13  2  0
 12 14  1  0
M  END
> <Smiles>
C(CCCCCNC(=O)C)NC(=O)C

> <IC50_uM>
0.794328235

> <pIC50>
6.1

> <Activity>
1

$$$$

  SciTegic10102310092D

 15 17  0  0  0  0            999 V2000
    2.5981   -1.5000    0.0000 O   0  0
    1.2990   -0.7500    0.0000 C   0  0
    1.2990    0.7500    0.0000 C   0  0
    0.0000    1.5000    0.0000 C   0  0
   -1.2990    0.7500    0.0000 N   0  0
   -1.2990   -0.7500    0.0000 C   0  0
   -2.4133   -1.7530    0.0000 C   0  0
   -1.8032   -3.1233    0.0000 C   0  0
   -0.3114   -2.9665    0.0000 C   0  0
    0.6924   -4.0811    0.0000 O   0  0
    0.0000   -1.5000    0.0000 N   0  0
    0.0000    3.0000    0.0000 C   0  0
    1.2990    3.7500    0.0000 C   0  0
    2.5981    3.0000    0.0000 C   0  0
    2.5981    1.5000    0.0000 C   0  0
  1  2  2  0
  2  3  1  0
  3  4  2  0
  4  5  1  0
  5  6  2  0
  6  7  1  0
  7  8  1  0
  8  9  1  0
  9 10  2  0
  6 11  1  0
 11  2  1  0
 11  9  1  0
  4 12  1  0
 12 13  2  0
 13 14  1  0
 14 15  2  0
 15  3  1  0
M  END
> <Smiles>
O=C1c2c(N=C(CCC3=O)N13)cccc2

> <IC50_uM>
0.794328235

> <pIC50>
6.1

> <Activity>
1

$$$$

  SciTegic10102310092D

 10 11  0  0  0  0            999 V2000
    0.0000   -2.5607    0.0000 C   0  0
    0.0000   -1.0607    0.0000 C   0  0  3  0  0  0
    1.0607    0.0000    0.0000 C   0  0
    0.0000    1.0607    0.0000 C   0  0  3  0  0  0
   -1.0576    2.1182    0.0000 S   0  0
    0.2440    2.8638    0.0000 O   0  0
   -2.3590    2.8640    0.0000 O   0  0
   -2.1183    1.0576    0.0000 C   0  0
   -1.0607    0.0000    0.0000 C   0  0  3  0  0  0
    2.5607    0.0000    0.0000 O   0  0
  2  1  1  4
  2  3  1  0
  4  3  1  4
  4  5  1  0
  5  6  2  0
  5  7  2  0
  5  8  1  0
  4  9  1  0
  9  2  1  0
  9  8  1  4
  3 10  2  0
M  END
> <Smiles>
CC1C(C(S(=O)(=O)C2)C12)=O

> <IC50_uM>
0.794328235

> <pIC50>
6.1

> <Activity>
1

$$$$

  SciTegic10102310092D

  9  8  0  0  0  0            999 V2000
    2.6000    0.0000    0.0000 C   0  0
    2.6000   -1.5000    0.0000 O   0  0
    1.3000    0.7500    0.0000 C   0  0
    0.0007    0.0004    0.0000 C   0  0
    3.9000    0.7500    0.0000 O   0  0
    5.2000    0.0000    0.0000 N   0  0
    6.5000    0.7500    0.0000 N   0  3
    6.5000    2.2500    0.0000 O   0  5
    7.7992    0.0004    0.0000 O   0  0
  1  2  2  0
  1  3  1  0
  3  4  1  0
  1  5  1  0
  5  6  1  0
  6  7  1  0
  7  8  1  0
  7  9  2  0
M  CHG  2   7   1   8  -1
M  END
> <Smiles>
C(=O)(CC)ON[N+]([O-])=O

> <IC50_uM>
0.794328235

> <pIC50>
6.1

> <Activity>
1

$$$$

  SciTegic10102310092D

 12 11  0  0  0  0            999 V2000
    2.6000    0.0000    0.0000 P   0  0
    2.6000   -1.5000    0.0000 O   0  0
    1.3000    0.7500    0.0000 O   0  0
    0.0007    0.0004    0.0000 C   0  0
    1.2761   -0.7669    0.0000 O   0  0
    1.2773   -2.2669    0.0000 C   0  0
    3.9000    0.7500    0.0000 N   0  0
    5.2000    0.0000    0.0000 N   0  0
    6.5000    0.7500    0.0000 C   0  0
    7.7999    0.0000    0.0000 C   0  0
    7.7999   -1.5000    0.0000 O   0  0
    9.0992    0.7496    0.0000 O   0  0
  1  2  2  0
  1  3  1  0
  3  4  1  0
  1  5  1  0
  5  6  1  0
  1  7  1  0
  7  8  1  0
  8  9  2  0
  9 10  1  0
 10 11  1  0
 10 12  2  0
M  END
> <Smiles>
P(=O)(OC)(OC)N\N=C\C(O)=O

> <IC50_uM>
0.794328235

> <pIC50>
6.1

> <Activity>
1

$$$$

  SciTegic10102310092D

 14 15  0  0  0  0            999 V2000
    3.1476   -0.7184    0.0000 O   0  0
    1.6852   -0.3846    0.0000 C   0  0
    1.3514    1.0778    0.0000 N   0  0
    0.0000    1.7286    0.0000 C   0  0
   -1.3515    1.0777    0.0000 C   0  0
   -1.0833    2.5536    0.0000 C   0  0
   -2.7307    0.4880    0.0000 C   0  0
   -1.6852   -0.3847    0.0000 O   0  0
   -0.7500   -1.5574    0.0000 C   0  0
   -1.2135   -2.9844    0.0000 C   0  0
    0.0000   -3.8661    0.0000 O   0  0
    1.2135   -2.9844    0.0000 C   0  0
   -2.6401   -3.4480    0.0000 O   0  0
    0.7500   -1.5574    0.0000 C   0  0
  1  2  2  0
  2  3  1  0
  3  4  1  0
  4  5  1  0
  5  6  1  0
  5  7  1  0
  5  8  1  0
  8  9  1  0
  9 10  1  0
 10 11  1  0
 11 12  1  0
 10 13  2  0
  9 14  2  0
 14  2  1  0
 14 12  1  0
M  END
> <Smiles>
O=C1NCC(C)(C)OC(C(OC2)=O)=C12

> <IC50_uM>
0.794328235

> <pIC50>
6.1

> <Activity>
1

$$$$

  SciTegic10102310092D

 14 13  0  0  0  0            999 V2000
    5.2000    0.0000    0.0000 C   0  0
    5.2030   -1.5008    0.0000 C   0  0
    3.9053   -2.2531    0.0000 O   0  0
    6.5032   -2.2490    0.0000 O   0  0
    3.9000    0.7500    0.0000 C   0  0
    2.6000    0.0000    0.0000 C   0  0
    1.3000    0.7500    0.0000 C   0  0
    1.3000    2.2500    0.0000 O   0  0
    0.0007    0.0004    0.0000 O   0  0
    6.5000    0.7500    0.0000 C   0  0
    7.7999    0.0000    0.0000 C   0  0
    7.7999   -1.5000    0.0000 O   0  0
    9.0999    0.7500    0.0000 O   0  0
   10.3992    0.0004    0.0000 C   0  0
  1  2  1  0
  2  3  1  0
  2  4  2  0
  1  5  1  0
  5  6  2  0
  6  7  1  0
  7  8  1  0
  7  9  2  0
  1 10  2  0
 10 11  1  0
 11 12  2  0
 11 13  1  0
 13 14  1  0
M  END
> <Smiles>
C(/C(O)=O)(\C=C\C(O)=O)=C/C(=O)OC

> <IC50_uM>
0.794328235

> <pIC50>
6.1

> <Activity>
1

$$$$

  SciTegic10102310092D

 14 13  0  0  0  0            999 V2000
    2.6000    0.0000    0.0000 C   0  0
    1.3000    0.7500    0.0000 C   0  0
    1.3000    2.2500    0.0000 O   0  0
    0.0007    0.0004    0.0000 O   0  0
    2.6031   -1.5008    0.0000 C   0  0
    1.3053   -2.2531    0.0000 O   0  0
    3.9032   -2.2490    0.0000 O   0  0
    3.9000    0.7500    0.0000 C   0  0
    5.2000    0.0000    0.0000 C   0  0
    6.5000   -0.7500    0.0000 C   0  0
    7.7999   -1.5000    0.0000 C   0  0
    9.0999   -0.7500    0.0000 C   0  0
   10.3999   -1.5000    0.0000 C   0  0
   11.6992   -0.7504    0.0000 C   0  0
  1  2  1  0
  2  3  1  0
  2  4  2  0
  1  5  1  0
  5  6  1  0
  5  7  2  0
  1  8  1  0
  8  9  1  0
  9 10  3  0
 10 11  1  0
 11 12  1  0
 12 13  1  0
 13 14  1  0
M  END
> <Smiles>
C(C(O)=O)(C(O)=O)CC#CCCCC

> <IC50_uM>
0.794328235

> <pIC50>
6.1

> <Activity>
1

$$$$

  SciTegic10102310092D

 12 13  0  0  0  0            999 V2000
    1.2990   -0.7500    0.0000 C   0  0
    1.2990    0.7500    0.0000 C   0  0
    2.5981    1.5000    0.0000 C   0  0
    2.5981    3.0000    0.0000 C   0  0
    1.2990    3.7500    0.0000 C   0  0
    0.0000    3.0000    0.0000 O   0  0
    1.2990    5.2500    0.0000 O   0  0
    0.0000    1.5000    0.0000 C   0  0
   -1.2990    0.7500    0.0000 C   0  0
   -1.2990   -0.7500    0.0000 C   0  0
    0.0000   -1.5000    0.0000 C   0  0
    0.0000   -3.0000    0.0000 N   0  0
  1  2  2  0
  2  3  1  0
  3  4  2  0
  4  5  1  0
  5  6  1  0
  5  7  2  0
  2  8  1  0
  8  6  1  0
  8  9  2  0
  9 10  1  0
 10 11  2  0
 11  1  1  0
 11 12  1  0
M  END
> <Smiles>
c1c(C=CC(O2)=O)c2ccc1N

> <IC50_uM>
0.794328235

> <pIC50>
6.1

> <Activity>
1

$$$$

  SciTegic10102310092D

 13 13  0  0  0  0            999 V2000
    1.2990   -0.7500    0.0000 C   0  0
    1.2990    0.7500    0.0000 C   0  0
    2.5981    1.5000    0.0000 Cl  0  0
    0.0000    1.5000    0.0000 C   0  0
   -0.0031    3.0008    0.0000 N   0  0
   -1.3039    3.7494    0.0000 C   0  0
   -1.3070    5.2494    0.0000 O   0  0
   -2.6017    2.9971    0.0000 C   0  0
   -1.2990    0.7500    0.0000 C   0  0
   -1.2990   -0.7500    0.0000 C   0  0
    0.0000   -1.5000    0.0000 C   0  0
    0.0031   -3.0008    0.0000 O   0  0
    1.3032   -3.7490    0.0000 C   0  0
  1  2  2  0
  2  3  1  0
  2  4  1  0
  4  5  1  0
  5  6  1  0
  6  7  2  0
  6  8  1  0
  4  9  2  0
  9 10  1  0
 10 11  2  0
 11  1  1  0
 11 12  1  0
 12 13  1  0
M  END
> <Smiles>
c1c(Cl)c(NC(=O)C)ccc1OC

> <IC50_uM>
0.794328235

> <pIC50>
6.1

> <Activity>
1

$$$$

  SciTegic10102310092D

 13 12  0  0  0  0            999 V2000
   10.3999    0.0000    0.0000 C   0  0
    9.0999    0.7500    0.0000 C   0  0
    7.7999    0.0000    0.0000 C   0  0
    6.5000    0.7500    0.0000 C   0  0
    5.2000    0.0000    0.0000 N   0  0
    3.9000    0.7500    0.0000 C   0  0
    2.6000    0.0000    0.0000 C   0  0
    1.3000    0.7500    0.0000 C   0  0
    0.0007    0.0004    0.0000 C   0  0
   11.6999    0.7500    0.0000 Si  0  0
   12.9992    0.0004    0.0000 C   0  0
   11.6999    2.2500    0.0000 C   0  0
   12.9988    1.5002    0.0000 C   0  0
  1  2  2  0
  2  3  1  0
  3  4  1  0
  4  5  1  0
  5  6  1  0
  6  7  1  0
  7  8  1  0
  8  9  2  0
  1 10  1  0
 10 11  1  0
 10 12  1  0
 10 13  1  0
M  END
> <Smiles>
C(=C\CCNCCC=C)/[Si](C)(C)C

> <IC50_uM>
0.794328235

> <pIC50>
6.1

> <Activity>
1

$$$$

  SciTegic10102310092D

 13 14  0  0  0  0            999 V2000
    1.2990   -0.7500    0.0000 C   0  0
    1.2990    0.7500    0.0000 C   0  0
    0.0000    1.5000    0.0000 C   0  0
    0.0000    3.0000    0.0000 N   0  0
   -1.2991    3.7500    0.0000 C   0  0
   -1.2991    5.2500    0.0000 C   0  0
   -2.5981    3.0000    0.0000 N   0  0
   -2.5981    1.5000    0.0000 S   0  0
   -2.5627    0.0004    0.0000 O   0  0
   -3.8792    2.2803    0.0000 O   0  0
   -1.2990    0.7500    0.0000 C   0  0
   -1.2990   -0.7500    0.0000 C   0  0
    0.0000   -1.5000    0.0000 C   0  0
  1  2  2  0
  2  3  1  0
  3  4  1  0
  4  5  2  0
  5  6  1  0
  5  7  1  0
  7  8  2  0
  8  9  1  0
  8 10  2  0
  3 11  2  0
 11  8  1  0
 11 12  1  0
 12 13  2  0
 13  1  1  0
M  END
> <Smiles>
c1cc(N=C(C)N=S2(O)=O)c2cc1

> <IC50_uM>
0.794328235

> <pIC50>
6.1

> <Activity>
1

$$$$

  SciTegic10102310092D

 14 14  0  0  0  0            999 V2000
    1.8954   -4.8324    0.0000 N   0  0
    1.2830   -6.2026    0.0000 C   0  0
    2.1626   -7.4186    0.0000 C   0  0
    3.0418   -8.6340    0.0000 C   0  0
    1.0157   -3.6164    0.0000 C   0  0
    1.6281   -2.2462    0.0000 O   0  0
    0.7500   -1.0323    0.0000 N   0  0
    1.2135    0.3943    0.0000 C   0  0
    2.6401    0.8578    0.0000 O   0  0
    0.0000    1.2760    0.0000 C   0  0
   -1.2135    0.3943    0.0000 C   0  0
   -0.7500   -1.0323    0.0000 C   0  0
   -1.6317   -2.2458    0.0000 O   0  0
   -0.4763   -3.7706    0.0000 O   0  0
  1  2  1  0
  2  3  1  0
  3  4  3  0
  1  5  1  0
  5  6  1  0
  6  7  1  0
  7  8  1  0
  8  9  2  0
  8 10  1  0
 10 11  1  0
 11 12  1  0
 12  7  1  0
 12 13  2  0
  5 14  2  0
M  END
> <Smiles>
N(CC#C)C(ON1C(=O)CCC1=O)=O

> <IC50_uM>
0.794328235

> <pIC50>
6.1

> <Activity>
1

$$$$

  SciTegic10102310092D

 14 14  0  0  0  0            999 V2000
    1.5505   -8.7881    0.0000 C   0  0
    2.1626   -7.4186    0.0000 C   0  0
    1.2830   -6.2026    0.0000 C   0  0
    1.8954   -4.8324    0.0000 N   0  0
    1.0157   -3.6164    0.0000 C   0  0
    1.6281   -2.2462    0.0000 O   0  0
    0.7500   -1.0323    0.0000 N   0  0
    1.2135    0.3943    0.0000 C   0  0
    2.6401    0.8578    0.0000 O   0  0
    0.0000    1.2760    0.0000 C   0  0
   -1.2135    0.3943    0.0000 C   0  0
   -0.7500   -1.0323    0.0000 C   0  0
   -1.6317   -2.2458    0.0000 O   0  0
   -0.4763   -3.7706    0.0000 O   0  0
  1  2  2  0
  2  3  1  0
  3  4  1  0
  4  5  1  0
  5  6  1  0
  6  7  1  0
  7  8  1  0
  8  9  2  0
  8 10  1  0
 10 11  1  0
 11 12  1  0
 12  7  1  0
 12 13  2  0
  5 14  2  0
M  END
> <Smiles>
C=CCNC(ON1C(=O)CCC1=O)=O

> <IC50_uM>
0.794328235

> <pIC50>
6.1

> <Activity>
1

$$$$

  SciTegic10102310092D

 14 14  0  0  0  0            999 V2000
    2.5981   -1.5000    0.0000 O   0  0
    1.2990   -0.7500    0.0000 C   0  0
    1.2990    0.7500    0.0000 C   0  0
    0.0000    1.5000    0.0000 C   0  0
   -1.2990    0.7500    0.0000 C   0  0
   -2.6003    1.4977    0.0000 O   0  0
   -3.8990    0.7455    0.0000 C   0  0  3  0  0  0
   -5.2003    1.4932    0.0000 C   0  0
   -6.4990    0.7409    0.0000 O   0  0
   -7.7996    1.4882    0.0000 C   0  0
   -5.2029    2.9932    0.0000 O   0  0
   -3.8964   -0.7545    0.0000 C   0  0
   -1.2990   -0.7500    0.0000 C   0  0
    0.0000   -1.5000    0.0000 C   0  0
  1  2  1  0
  2  3  2  0
  3  4  1  0
  4  5  2  0
  5  6  1  0
  6  7  1  0
  7  8  1  0
  8  9  1  0
  9 10  1  0
  8 11  2  0
  7 12  1  4
  5 13  1  0
 13 14  2  0
 14  2  1  0
M  END
> <Smiles>
Oc1ccc(OC(C(OC)=O)C)cc1

> <IC50_uM>
0.794328235

> <pIC50>
6.1

> <Activity>
1

$$$$

  SciTegic10102310092D

 14 14  0  0  0  0            999 V2000
    2.5973   -1.5031    0.0000 N   0  3
    1.2990   -0.7500    0.0000 C   0  0
    1.2990    0.7500    0.0000 C   0  0
    0.0000    1.5000    0.0000 C   0  0
   -1.2990    0.7500    0.0000 C   0  0
   -1.2990   -0.7500    0.0000 C   0  0
   -2.5972   -1.5031    0.0000 C   0  0
   -2.5951   -3.0039    0.0000 C   0  0
   -3.8933   -3.7570    0.0000 N   0  3
   -5.1937   -3.0093    0.0000 O   0  5
   -3.8912   -5.2570    0.0000 O   0  0
    0.0000   -1.5000    0.0000 C   0  0
    3.8976   -0.7553    0.0000 O   0  5
    2.5951   -3.0031    0.0000 O   0  0
  1  2  1  0
  2  3  2  0
  3  4  1  0
  4  5  2  0
  5  6  1  0
  6  7  1  0
  7  8  1  0
  8  9  1  0
  9 10  1  0
  9 11  2  0
  6 12  2  0
 12  2  1  0
  1 13  1  0
  1 14  2  0
M  CHG  4   1   1   9   1  10  -1  13  -1
M  END
> <Smiles>
[N+](c1cccc(CC[N+]([O-])=O)c1)([O-])=O

> <IC50_uM>
0.794328235

> <pIC50>
6.1

> <Activity>
1

$$$$

  SciTegic10102310092D

 15 17  0  0  0  0            999 V2000
    1.2990   -0.7500    0.0000 C   0  0
    1.2990    0.7500    0.0000 N   0  0
    0.0000    1.5000    0.0000 C   0  0
    0.0000    3.0000    0.0000 C   0  0
   -1.2991    3.7500    0.0000 C   0  0
   -2.5981    3.0000    0.0000 C   0  0
   -3.8971    3.7500    0.0000 C   0  0
   -3.8972    5.2500    0.0000 O   0  0
   -5.1962    3.0000    0.0000 C   0  0
   -5.1962    1.5000    0.0000 C   0  0
   -3.8971    0.7500    0.0000 N   0  0
   -2.5981    1.5000    0.0000 C   0  0
   -1.2990    0.7500    0.0000 C   0  0
   -1.2990   -0.7500    0.0000 C   0  0
    0.0000   -1.5000    0.0000 C   0  0
  1  2  2  0
  2  3  1  0
  3  4  2  0
  4  5  1  0
  5  6  2  0
  6  7  1  0
  7  8  2  0
  7  9  1  0
  9 10  2  0
 10 11  1  0
  6 12  1  0
 12 11  1  0
  3 13  1  0
 13 12  2  0
 13 14  1  0
 14 15  2  0
 15  1  1  0
M  END
> <Smiles>
c1nc(ccc(C(=O)C=CN2)c23)c3cc1

> <IC50_uM>
0.794328235

> <pIC50>
6.1

> <Activity>
1

$$$$

  SciTegic10102310092D

 13 13  0  0  0  0            999 V2000
    0.7500   -1.0323    0.0000 S   0  0
    1.2135    0.3943    0.0000 C   0  0
    2.6375    0.8603    0.0000 N   0  0
    2.9474    2.3287    0.0000 C   0  0
    4.3738    2.7955    0.0000 C   0  0
    4.6837    4.2640    0.0000 C   0  0
    6.1093    4.7305    0.0000 C   0  0
    0.0000    1.2760    0.0000 N   0  0
   -1.2135    0.3943    0.0000 C   0  0
   -2.6384    0.8573    0.0000 C   0  0
   -4.0650    1.3208    0.0000 N   0  0
   -0.7500   -1.0323    0.0000 C   0  0
   -1.6317   -2.2458    0.0000 N   0  0
  1  2  1  0
  2  3  1  0
  3  4  1  0
  4  5  1  0
  5  6  1  0
  6  7  1  0
  2  8  2  0
  8  9  1  0
  9 10  1  0
 10 11  3  0
  9 12  2  0
 12  1  1  0
 12 13  1  0
M  END
> <Smiles>
s1c(NCCCC)nc(C#N)c1N

> <IC50_uM>
0.794328235

> <pIC50>
6.1

> <Activity>
1

$$$$

  SciTegic10102310092D

 14 15  0  0  0  0            999 V2000
    2.4133   -1.7530    0.0000 C   0  0
    1.2990   -0.7500    0.0000 C   0  0  3  0  0  0
    1.2990    0.7500    0.0000 C   0  0
    2.5972    1.5031    0.0000 C   0  0
    2.5951    3.0039    0.0000 O   0  0
    3.8926    3.7566    0.0000 C   0  0
    3.8976    0.7554    0.0000 O   0  0
    0.0000    1.5000    0.0000 C   0  0
   -1.2990    0.7500    0.0000 O   0  0
   -1.2990   -0.7500    0.0000 C   0  0  3  0  0  0
   -2.5981   -1.5000    0.0000 O   0  0
    0.0000   -1.5000    0.0000 C   0  0  3  0  0  0
    0.3114   -2.9665    0.0000 C   0  0
    1.8032   -3.1233    0.0000 C   0  0
  2  1  1  4
  2  3  1  0
  3  4  1  0
  4  5  1  0
  5  6  1  0
  4  7  2  0
  3  8  2  0
  8  9  1  0
  9 10  1  0
 10 11  1  4
  2 12  1  0
 12 10  1  0
 12 13  1  4
 13 14  1  0
 14  1  1  0
M  END
> <Smiles>
C1C(C(C(OC)=O)=COC2O)C2CC1

> <IC50_uM>
0.794328235

> <pIC50>
6.1

> <Activity>
1

$$$$

  SciTegic10102310092D

  9  8  0  0  0  0            999 V2000
    0.0007    0.0004    0.0000 O   0  0
    1.3000    0.7500    0.0000 C   0  0
    2.6000    0.0000    0.0000 C   0  0  3  0  0  0
    3.9000    0.7500    0.0000 C   0  0
    5.2000    0.0000    0.0000 As  0  0
    5.2000   -1.5000    0.0000 O   0  0
    6.4989   -0.7502    0.0000 O   0  0
    6.4992    0.7496    0.0000 O   0  0
    2.6000   -1.5000    0.0000 O   0  0
  1  2  1  0
  2  3  1  0
  3  4  1  0
  4  5  1  0
  5  6  1  0
  5  7  1  0
  5  8  2  0
  3  9  1  4
M  END
> <Smiles>
OCC(C[As](O)(O)=O)O

> <IC50_uM>
0.794328235

> <pIC50>
6.1

> <Activity>
1

$$$$

  SciTegic10102310092D

 13 13  0  0  0  0            999 V2000
    0.7500   -1.0323    0.0000 N   0  0
    1.2135    0.3943    0.0000 C   0  0
    2.6375    0.8603    0.0000 C   0  0
    2.9474    2.3287    0.0000 C   0  0
    1.8312    3.3321    0.0000 C   0  0
    0.7157    4.3349    0.0000 N   0  0
    4.3733    2.7971    0.0000 P   0  0
    5.7986    3.2645    0.0000 O   0  0
    5.4909    1.7966    0.0000 O   0  0
    4.6814    4.2651    0.0000 O   0  0
    0.0000    1.2760    0.0000 C   0  0
   -1.2135    0.3943    0.0000 C   0  0
   -0.7500   -1.0323    0.0000 C   0  0
  1  2  1  0
  2  3  1  0
  3  4  2  0
  4  5  1  0
  5  6  3  0
  4  7  1  0
  7  8  1  0
  7  9  1  0
  7 10  2  0
  2 11  2  0
 11 12  1  0
 12 13  2  0
 13  1  1  0
M  END
> <Smiles>
[nH]1c(\C=C(/C#N)\P(O)(O)=O)ccc1

> <IC50_uM>
0.794328235

> <pIC50>
6.1

> <Activity>
1

$$$$

  SciTegic10102310092D

 14 15  0  0  0  0            999 V2000
    2.4133   -1.7530    0.0000 C   0  0  3  0  0  0
    3.8794   -1.4442    0.0000 C   0  0
    4.8817   -2.5602    0.0000 C   0  0
    4.3452   -0.0184    0.0000 C   0  0
    1.2990   -0.7500    0.0000 N   0  0
    1.2990    0.7500    0.0000 C   0  0
    0.0000    1.5000    0.0000 C   0  0
   -1.2990    0.7500    0.0000 C   0  0  3  0  0  0
   -1.2990   -0.7500    0.0000 O   0  0
   -2.5981    1.5000    0.0000 C   0  0
    2.5981    1.5000    0.0000 O   0  0
    0.0000   -1.5000    0.0000 C   0  0  3  0  0  0
    0.3114   -2.9665    0.0000 O   0  0
    1.8032   -3.1233    0.0000 C   0  0
  1  2  1  4
  2  3  1  0
  2  4  1  0
  1  5  1  0
  5  6  1  0
  6  7  1  0
  7  8  1  0
  8  9  1  0
  8 10  1  4
  6 11  2  0
  5 12  1  0
 12  9  1  4
 12 13  1  0
 13 14  1  0
 14  1  1  0
M  END
> <Smiles>
C1(C(C)C)N(C(CC(O2)C)=O)C2OC1

> <IC50_uM>
0.794328235

> <pIC50>
6.1

> <Activity>
1

$$$$

  SciTegic10102310092D

 14 14  0  0  0  0            999 V2000
    1.2990   -0.7500    0.0000 C   0  0
    2.5973   -1.5031    0.0000 C   0  0
    2.5951   -3.0039    0.0000 O   0  0
    3.8926   -3.7566    0.0000 C   0  0
    3.8976   -0.7553    0.0000 O   0  0
    1.2990    0.7500    0.0000 N   0  0
    0.0000    1.5000    0.0000 N   0  0
   -1.2990    0.7500    0.0000 C   0  0
   -2.6003    1.4977    0.0000 C   0  0
   -3.8990    0.7455    0.0000 O   0  0
   -5.1996    1.4928    0.0000 C   0  0
   -2.6030    2.9977    0.0000 O   0  0
   -1.2990   -0.7500    0.0000 C   0  0
    0.0000   -1.5000    0.0000 N   0  0
  1  2  1  0
  2  3  1  0
  3  4  1  0
  2  5  2  0
  1  6  2  0
  6  7  1  0
  7  8  1  0
  8  9  1  0
  9 10  1  0
 10 11  1  0
  9 12  2  0
  8 13  2  0
 13 14  1  0
 14  1  1  0
M  END
> <Smiles>
C1(C(OC)=O)=NNC(C(OC)=O)=CN1

> <IC50_uM>
0.794328235

> <pIC50>
6.1

> <Activity>
1

$$$$

  SciTegic10102310092D

 14 15  0  0  0  0            999 V2000
    1.2990   -0.7500    0.0000 C   0  0
    1.2990    0.7500    0.0000 N   0  0
    2.4133    1.7530    0.0000 C   0  0  3  0  0  0
    3.8794    1.4442    0.0000 C   0  0
    4.8817    2.5602    0.0000 C   0  0
    4.3452    0.0184    0.0000 C   0  0
    1.8032    3.1233    0.0000 C   0  0
    0.3114    2.9665    0.0000 O   0  0
    0.0000    1.5000    0.0000 C   0  0  3  0  0  0
   -1.2990    0.7500    0.0000 O   0  0
   -1.2990   -0.7500    0.0000 C   0  0
   -2.5981   -1.5000    0.0000 C   0  0
    0.0000   -1.5000    0.0000 C   0  0
    2.5981   -1.5000    0.0000 O   0  0
  1  2  1  0
  2  3  1  0
  3  4  1  4
  4  5  1  0
  4  6  1  0
  3  7  1  0
  7  8  1  0
  2  9  1  0
  9  8  1  4
  9 10  1  0
 10 11  1  0
 11 12  1  0
 11 13  2  0
 13  1  1  0
  1 14  2  0
M  END
> <Smiles>
C1(N(C(C(C)C)CO2)C2OC(C)=C1)=O

> <IC50_uM>
0.794328235

> <pIC50>
6.1

> <Activity>
1

$$$$

  SciTegic10102310092D

 15 17  0  0  0  0            999 V2000
    2.4133   -1.7530    0.0000 N   0  0
    3.8805   -1.4410    0.0000 C   0  0
    1.2990   -0.7500    0.0000 C   0  0
    1.2990    0.7500    0.0000 C   0  0
    0.0000    1.5000    0.0000 C   0  0
   -1.2990    0.7500    0.0000 C   0  0
   -1.2990   -0.7500    0.0000 C   0  0
    0.0000   -1.5000    0.0000 C   0  0
    0.3114   -2.9665    0.0000 C   0  0  3  0  0  0
   -1.0545   -3.6773    0.0000 C   0  0
   -0.8588   -5.1645    0.0000 C   0  0
    0.6160   -5.4379    0.0000 C   0  0
    1.3318   -4.1197    0.0000 C   0  0
    1.8032   -3.1233    0.0000 C   0  0
    2.5532   -4.4223    0.0000 O   0  0
  1  2  1  0
  1  3  1  0
  3  4  2  0
  4  5  1  0
  5  6  2  0
  6  7  1  0
  3  8  1  0
  8  7  2  0
  8  9  1  0
  9 10  1  4
 10 11  2  0
 11 12  1  0
 12 13  1  0
 13  9  1  0
  9 14  1  0
 14  1  1  0
 14 15  2  0
M  END
> <Smiles>
N1(C)c(cccc2)c2C3(C=CCC3)C1=O

> <IC50_uM>
0.794328235

> <pIC50>
6.1

> <Activity>
1

$$$$

  SciTegic10102310092D

 14 16  0  0  0  0            999 V2000
   -2.8500   -0.7400    0.0000 C   0  0
   -2.8500   -1.5200    0.0000 C   0  0  3  0  0  0
   -4.4800   -2.2100    0.0000 C   0  0
   -1.4000   -1.8100    0.0000 C   0  0
    0.4600   -1.4800    0.0000 C   0  0  3  0  0  0
   -1.1200   -2.5800    0.0000 C   0  0
   -2.6000   -2.1800    0.0000 C   0  0  3  0  0  0
   -2.5400   -1.3600    0.0000 C   0  0
    0.4900   -0.6700    0.0000 C   0  0
   -1.2300   -0.3200    0.0000 C   0  0  3  0  0  0
   -1.2199    1.1800    0.0000 F   0  0
    1.9106   -1.2350    0.0000 C   0  0
    2.8658   -2.3915    0.0000 N   0  0
    2.4351    0.1703    0.0000 O   0  0
  2  1  1  4
  2  3  1  0
  2  4  1  0
  4  5  1  0
  5  6  1  0
  7  6  1  4
  7  3  1  0
  7  8  1  0
  5  9  1  0
  9 10  1  0
 10  1  1  0
 10  8  1  0
 10 11  1  4
  5 12  1  4
 12 13  1  0
 12 14  2  0
M  END
> <Smiles>
C1C(C2)CC(CC2C3)(CC13F)C(N)=O

> <IC50_uM>
0.794328235

> <pIC50>
6.1

> <Activity>
1

$$$$

  SciTegic10102310092D

 13 14  0  0  0  0            999 V2000
    0.7500   -1.0323    0.0000 C   0  0
    1.6332   -2.2426    0.0000 C   0  0
    3.1255   -2.0835    0.0000 N   0  0
    4.0097   -3.2952    0.0000 N   0  0
    1.0255   -3.6140    0.0000 O   0  0
    1.2135    0.3943    0.0000 C   0  0
    2.6401    0.8578    0.0000 C   0  0
    0.0000    1.2760    0.0000 N   0  0
   -1.2135    0.3943    0.0000 C   0  0
   -2.7115    0.3949    0.0000 S   0  0
   -3.1750   -1.0317    0.0000 C   0  0
   -1.9615   -1.9133    0.0000 C   0  0
   -0.7500   -1.0323    0.0000 N   0  0
  1  2  1  0
  2  3  1  0
  3  4  1  0
  2  5  2  0
  1  6  2  0
  6  7  1  0
  6  8  1  0
  8  9  2  0
  9 10  1  0
 10 11  1  0
 11 12  2  0
  9 13  1  0
 13  1  1  0
 13 12  1  0
M  END
> <Smiles>
c1(C(NN)=O)c(C)nc(scc2)n12

> <IC50_uM>
0.794328235

> <pIC50>
6.1

> <Activity>
1

$$$$

  SciTegic10102310092D

 14 14  0  0  0  0            999 V2000
    1.2990   -0.7500    0.0000 C   0  0
    1.2990    0.7500    0.0000 N   0  0
    2.5972    1.5031    0.0000 C   0  0
    2.5951    3.0039    0.0000 C   0  0
    3.8933    3.7570    0.0000 N   0  0
    3.8912    5.2570    0.0000 C   0  0
    1.2948    3.7517    0.0000 O   0  0
    0.0000    1.5000    0.0000 C   0  0
   -1.2990    0.7500    0.0000 C   0  0
   -2.5981    1.5000    0.0000 O   0  0
   -1.2990   -0.7500    0.0000 N   0  0
   -2.5981   -1.5000    0.0000 C   0  0
    0.0000   -1.5000    0.0000 C   0  0
    0.0000   -3.0000    0.0000 O   0  0
  1  2  1  0
  2  3  1  0
  3  4  1  0
  4  5  1  0
  5  6  1  0
  4  7  2  0
  2  8  1  0
  8  9  1  0
  9 10  2  0
  9 11  1  0
 11 12  1  0
 11 13  1  0
 13  1  1  0
 13 14  2  0
M  END
> <Smiles>
C1N(CC(NC)=O)CC(=O)N(C)C1=O

> <IC50_uM>
0.794328235

> <pIC50>
6.1

> <Activity>
1

$$$$

  SciTegic10102310092D

 35 38  0  0  0  0            999 V2000
    2.5981   -1.5000    0.0000 C   0  0
    1.2990   -0.7500    0.0000 C   0  0
    1.2990    0.7500    0.0000 C   0  0
    0.0000    1.5000    0.0000 C   0  0
   -1.2990    0.7500    0.0000 C   0  0
   -2.5987    1.5004    0.0000 C   0  0
   -3.9492    0.8772    0.0000 N   0  0
   -4.9546    1.9903    0.0000 C   0  0
   -4.2067    3.2905    0.0000 S   0  0
   -2.7390    2.9810    0.0000 C   0  0
   -1.6216    3.9790    0.0000 S   0  0
   -1.9268    5.4485    0.0000 C   0  0
   -0.8074    6.4482    0.0000 C   0  0
    0.6172    5.9785    0.0000 O   0  0
   -1.1126    7.9177    0.0000 N   0  0
    0.0068    8.9174    0.0000 C   0  0
    1.4306    8.4453    0.0000 C   0  0
    2.5514    9.4422    0.0000 C   0  0
    2.2485   10.9113    0.0000 C   0  0
    3.3698   11.9087    0.0000 C   0  0
    4.7944   11.4389    0.0000 C   0  0
    5.9136   12.4375    0.0000 C   0  0
    5.6083   13.9061    0.0000 C   0  0
    6.7261   14.9077    0.0000 C   0  0
    6.4186   16.3767    0.0000 C   0  0
    7.5357   17.3777    0.0000 O   0  0
    4.9933   16.8441    0.0000 O   0  0
    4.1839   14.3761    0.0000 C   0  0
    3.0646   13.3774    0.0000 C   0  0
    0.8247   11.3835    0.0000 C   0  0
   -0.2961   10.3866    0.0000 C   0  0
   -1.7198   10.8588    0.0000 Cl  0  0
   -1.2990   -0.7500    0.0000 C   0  0
   -2.5981   -1.5000    0.0000 Cl  0  0
    0.0000   -1.5000    0.0000 C   0  0
  1  2  1  0
  2  3  2  0
  3  4  1  0
  4  5  2  0
  5  6  1  0
  6  7  1  0
  7  8  2  0
  8  9  1  0
  9 10  1  0
 10  6  2  0
 10 11  1  0
 11 12  1  0
 12 13  1  0
 13 14  2  0
 13 15  1  0
 15 16  1  0
 16 17  2  0
 17 18  1  0
 18 19  2  0
 19 20  1  0
 20 21  2  0
 21 22  1  0
 22 23  2  0
 23 24  1  0
 24 25  1  0
 25 26  2  0
 25 27  1  0
 23 28  1  0
 28 29  2  0
 29 20  1  0
 19 30  1  0
 30 31  2  0
 31 16  1  0
 31 32  1  0
  5 33  1  0
 33 34  1  0
 33 35  2  0
 35  2  1  0
M  END
> <Smiles>
Cc1ccc(-c2ncsc2SCC(=O)Nc2ccc(-c3ccc(CC(=O)O)cc3)cc2Cl)c(Cl)c1

> <IC50_uM>
0.796

> <pIC50>
6.099086932

> <Activity>
1

$$$$

  SciTegic10102310092D

 28 30  0  0  0  0            999 V2000
    3.1676   -7.5606    0.0000 C   0  0
    1.7006   -7.2475    0.0000 C   0  0
    0.6960   -8.3614    0.0000 C   0  0
   -0.7710   -8.0483    0.0000 C   0  0
   -1.7756   -9.1622    0.0000 C   0  0
   -1.2333   -6.6213    0.0000 C   0  0
   -0.2287   -5.5075    0.0000 C   0  0
   -0.6913   -4.0797    0.0000 S   0  0
   -2.1584   -3.7671    0.0000 O   0  0
   -1.6957   -5.1937    0.0000 O   0  0
    0.3114   -2.9665    0.0000 C   0  0
    1.8032   -3.1233    0.0000 C   0  0
    2.5551   -4.4192    0.0000 C   0  0
    1.8074   -5.7196    0.0000 O   0  0
    4.0559   -4.4171    0.0000 N   0  0
    4.8090   -5.7153    0.0000 N   0  0
    6.3098   -5.7131    0.0000 C   0  0
    7.0625   -7.0106    0.0000 C   0  0
    7.0575   -4.4127    0.0000 C   0  0
    2.4133   -1.7530    0.0000 N   0  0
    1.2990   -0.7500    0.0000 C   0  0
    1.2990    0.7500    0.0000 C   0  0
    0.0000    1.5000    0.0000 C   0  0
   -1.2990    0.7500    0.0000 C   0  0
   -2.5981    1.5000    0.0000 Cl  0  0
   -1.2990   -0.7500    0.0000 C   0  0
    0.0000   -1.5000    0.0000 C   0  0
    1.2383   -5.8206    0.0000 C   0  0
  1  2  1  0
  2  3  2  0
  3  4  1  0
  4  5  1  0
  4  6  2  0
  6  7  1  0
  7  8  1  0
  8  9  2  0
  8 10  2  0
  8 11  1  0
 11 12  2  0
 12 13  1  0
 13 14  2  0
 13 15  1  0
 15 16  1  0
 16 17  1  0
 17 18  1  0
 17 19  1  0
 12 20  1  0
 20 21  1  0
 21 22  2  0
 22 23  1  0
 23 24  2  0
 24 25  1  0
 24 26  1  0
 26 27  2  0
 27 11  1  0
 27 21  1  0
  7 28  2  0
 28  2  1  0
M  END
> <Smiles>
Cc1cc(C)cc(S(=O)(=O)c2c(C(=O)NNC(C)C)[nH]c3ccc(Cl)cc23)c1

> <IC50_uM>
0.8

> <pIC50>
6.096910013

> <Activity>
1

$$$$

  SciTegic10102310092D

 31 34  0  0  0  0            999 V2000
    2.5981   -1.5000    0.0000 C   0  0
    1.2990   -0.7500    0.0000 C   0  0
    1.2990    0.7500    0.0000 C   0  0
    0.0000    1.5000    0.0000 C   0  0
   -0.0031    3.0008    0.0000 O   0  0
   -1.3039    3.7494    0.0000 C   0  0
   -2.6005    2.9949    0.0000 C   0  0
   -3.9021    3.7404    0.0000 C   0  0
   -3.9073    5.2404    0.0000 C   0  0
   -2.6108    5.9949    0.0000 C   0  0
   -1.3092    5.2494    0.0000 C   0  0
   -0.0136    6.0070    0.0000 O   0  0
   -0.0210    7.5078    0.0000 C   0  0
    1.2745    8.2655    0.0000 C   0  0
    1.2672    9.7663    0.0000 N   0  0
   -0.0371   10.5073    0.0000 C   0  0
   -0.0475   12.0073    0.0000 C   0  0
    1.2463   12.7663    0.0000 C   0  0
    1.2359   14.2662    0.0000 O   0  0
    2.5505   12.0253    0.0000 N   0  0
    2.5609   10.5254    0.0000 C   0  0
    3.8652    9.7845    0.0000 O   0  0
   -1.2990    0.7500    0.0000 C   0  0
   -1.2990   -0.7500    0.0000 C   0  0
   -2.5981   -1.5000    0.0000 C   0  0
   -2.5981   -3.0000    0.0000 C   0  0
   -3.8978   -3.7504    0.0000 C   0  0
   -5.1968   -4.5004    0.0000 N   0  0
   -1.2990   -3.7500    0.0000 C   0  0
    0.0000   -3.0000    0.0000 C   0  0
    0.0000   -1.5000    0.0000 C   0  0
  1  2  1  0
  2  3  2  0
  3  4  1  0
  4  5  1  0
  5  6  1  0
  6  7  2  0
  7  8  1  0
  8  9  2  0
  9 10  1  0
 10 11  2  0
 11  6  1  0
 11 12  1  0
 12 13  1  0
 13 14  1  0
 14 15  1  0
 15 16  1  0
 16 17  2  0
 17 18  1  0
 18 19  2  0
 18 20  1  0
 20 21  1  0
 21 15  1  0
 21 22  2  0
  4 23  2  0
 23 24  1  0
 24 25  2  0
 25 26  1  0
 26 27  1  0
 27 28  3  0
 26 29  2  0
 29 30  1  0
 30 31  2  0
 31  2  1  0
 31 24  1  0
M  END
> <Smiles>
Cc1cc(Oc2ccccc2OCCn2ccc(=O)[nH]c2=O)cc2cc(C#N)ccc12

> <IC50_uM>
0.8

> <pIC50>
6.096910013

> <Activity>
1

$$$$

  SciTegic10102310092D

 48 52  0  0  1  0            999 V2000
    4.0940  -12.3545    0.0000 C   0  0
    3.4709  -10.9901    0.0000 C   0  0
    4.3410   -9.7682    0.0000 C   0  0
    5.8347   -9.9140    0.0000 C   0  0
    6.4562  -11.2800    0.0000 C   0  0
    5.5819  -12.4990    0.0000 C   0  0
    6.2003  -13.8656    0.0000 C   0  0
    5.3280  -15.0869    0.0000 O   0  0
    5.9487  -16.4534    0.0000 S   0  0
    5.0769  -17.6740    0.0000 O   0  0
    7.4417  -16.5985    0.0000 O   0  0
    6.5697  -17.8188    0.0000 O   0  5
    7.6930  -14.0133    0.0000 C   0  0
    8.5674  -12.7945    0.0000 C   0  0
    7.9490  -11.4279    0.0000 C   0  0
    8.8263  -10.2102    0.0000 O   0  0
   10.3196  -10.3602    0.0000 S   0  0
   11.1965   -9.1432    0.0000 O   0  0
   10.9356  -11.7279    0.0000 O   0  0
   11.8120  -10.5109    0.0000 O   0  5
    3.7179   -8.4037    0.0000 C   0  0  2  0  0  0
    5.2111   -8.5463    0.0000 C   0  0
    4.5880   -7.1819    0.0000 C   0  0
    3.9649   -5.8174    0.0000 C   0  0
    2.4717   -5.6748    0.0000 C   0  0
    1.6431   -6.9006    0.0000 C   0  0  1  0  0  0
    0.7732   -8.1226    0.0000 C   0  0
    1.0199   -5.5353    0.0000 C   0  0
    1.8899   -4.3124    0.0000 C   0  0
    1.3085   -2.9511    0.0000 C   0  0  1  0  0  0
   -0.1700   -2.6980    0.0000 O   0  0
    2.7923   -3.1710    0.0000 C   0  0  2  0  0  0
    3.3437   -4.5660    0.0000 C   0  0
    3.7247   -1.9960    0.0000 C   0  0
    3.1733   -0.6011    0.0000 C   0  0
    1.6852   -0.3846    0.0000 C   0  0  2  0  0  0
    1.3514    1.0778    0.0000 O   0  0
    0.0000    1.7286    0.0000 C   0  0
    1.3210    2.4391    0.0000 C   0  0
   -1.3210    2.4392    0.0000 C   0  0
   -1.3515    1.0777    0.0000 C   0  0
   -1.6852   -0.3847    0.0000 C   0  0
   -0.7500   -1.5574    0.0000 C   0  0
    0.7500   -1.5574    0.0000 C   0  0  2  0  0  0
   -0.0905   -2.7998    0.0000 C   0  0
    2.2247   -8.2611    0.0000 C   0  0  1  0  0  0
    1.3546   -9.4830    0.0000 C   0  0
    1.9777  -10.8474    0.0000 C   0  0
  1  2  1  0
  2  3  2  0
  3  4  1  0
  4  5  1  0
  5  6  2  0
  6  7  1  0
  7  8  1  0
  8  9  1  0
  9 10  2  0
  9 11  2  0
  9 12  1  0
  7 13  2  0
 13 14  1  0
 14 15  2  0
 15  5  1  0
 15 16  1  0
 16 17  1  0
 17 18  2  0
 17 19  2  0
 17 20  1  0
  3 21  1  0
 21 22  1  6
 21 23  1  0
 23 24  1  0
 24 25  1  0
 25 26  1  0
 26 27  1  1
 26 28  1  0
 28 29  1  0
 29 30  1  0
 30 31  1  1
 30 32  1  0
 32 33  1  1
 32 34  1  0
 34 35  1  0
 36 35  1  1
 36 37  1  0
 37 38  1  0
 38 39  1  0
 38 40  1  0
 38 41  1  0
 41 42  1  0
 42 43  1  0
 43 44  1  0
 44 36  1  0
 44 30  1  0
 44 45  1  6
 26 46  1  0
 46 21  1  0
 46 47  1  6
 47 48  1  0
 48  2  1  0
M  CHG  2  12  -1  20  -1
M  END
> <Smiles>
CC1=C(Cc2cc(OS(=O)(=O)[O-])ccc2OS(=O)(=O)[O-])[C@]2(C)CCC[C@@](C)(CC[C@@]3(O)[C@H](C)CC[C@@H]4OC(C)(C)CCC[C@@]43C)[C@H]2CC1.[Na+].[Na+]

> <IC50_uM>
0.8

> <pIC50>
6.096910013

> <Activity>
1

> <RemovedSalts>
Na+
Na+

$$$$

  SciTegic10102310092D

 25 27  0  0  0  0            999 V2000
    2.5981   -1.5000    0.0000 C   0  0
    1.2990   -0.7500    0.0000 C   0  0
    1.2990    0.7500    0.0000 C   0  0
    0.0000    1.5000    0.0000 C   0  0
   -1.2990    0.7500    0.0000 C   0  0
   -2.5987    1.5004    0.0000 N   0  0
   -3.9492    0.8772    0.0000 N   0  0
   -4.9546    1.9903    0.0000 N   0  0
   -4.2067    3.2905    0.0000 N   0  0
   -2.7390    2.9810    0.0000 C   0  0
   -1.6216    3.9790    0.0000 S   0  0
   -1.9268    5.4485    0.0000 C   0  0
   -0.8074    6.4482    0.0000 C   0  0
    0.6172    5.9785    0.0000 O   0  0
   -1.1126    7.9177    0.0000 N   0  0
    0.0068    8.9174    0.0000 C   0  0
    1.4306    8.4453    0.0000 C   0  0
    2.5514    9.4422    0.0000 C   0  0
    2.2485   10.9113    0.0000 C   0  0
    0.8247   11.3835    0.0000 C   0  0
   -0.2961   10.3866    0.0000 C   0  0
   -1.7198   10.8588    0.0000 Cl  0  0
   -1.2990   -0.7500    0.0000 C   0  0
   -2.5981   -1.5000    0.0000 Cl  0  0
    0.0000   -1.5000    0.0000 C   0  0
  1  2  1  0
  2  3  2  0
  3  4  1  0
  4  5  2  0
  5  6  1  0
  6  7  1  0
  7  8  2  0
  8  9  1  0
  9 10  2  0
 10  6  1  0
 10 11  1  0
 11 12  1  0
 12 13  1  0
 13 14  2  0
 13 15  1  0
 15 16  1  0
 16 17  2  0
 17 18  1  0
 18 19  2  0
 19 20  1  0
 20 21  2  0
 21 16  1  0
 21 22  1  0
  5 23  1  0
 23 24  1  0
 23 25  2  0
 25  2  1  0
M  END
> <Smiles>
Cc1ccc(-n2nnnc2SCC(=O)Nc2ccccc2Cl)c(Cl)c1

> <IC50_uM>
0.809

> <pIC50>
6.092051478

> <Activity>
1

$$$$

  SciTegic10102310092D

 15 16  0  0  0  0            999 V2000
    2.5981   -1.5000    0.0000 O   0  0
    1.2990   -0.7500    0.0000 C   0  0
    1.2990    0.7500    0.0000 N   0  0
    0.0000    1.5000    0.0000 C   0  0
   -1.2990    0.7500    0.0000 N   0  0
   -1.2990   -0.7500    0.0000 C   0  0
   -2.5981   -1.5000    0.0000 C   0  0
   -2.5981   -3.0000    0.0000 C   0  0
   -1.2990   -3.7500    0.0000 C   0  0
    0.0000   -3.0000    0.0000 C   0  0
   -3.8971   -0.7500    0.0000 N   0  0
    0.0000   -1.5000    0.0000 C   0  0
    0.0000    3.0000    0.0000 C   0  0
    2.5972    1.5031    0.0000 C   0  0
    2.5951    3.0031    0.0000 C   0  0
  1  2  2  0
  2  3  1  0
  3  4  1  0
  4  5  2  0
  5  6  1  0
  6  7  2  0
  7  8  1  0
  8  9  2  0
  9 10  1  0
  7 11  1  0
  6 12  1  0
 12  2  1  0
 12 10  2  0
  4 13  1  0
  3 14  1  0
 14 15  1  0
M  END
> <Smiles>
O=C1N(C(=Nc(c(ccc2)N)c12)C)CC

> <IC50_uM>
0.812830516

> <pIC50>
6.09

> <Activity>
1

$$$$

  SciTegic10102310092D

 15 16  0  0  0  0            999 V2000
   -0.6890   -4.0818    0.0000 C   0  0
    0.3114   -2.9665    0.0000 C   0  0
    1.8032   -3.1233    0.0000 C   0  0
    2.4133   -1.7530    0.0000 N   0  0
    1.2990   -0.7500    0.0000 C   0  0
    1.2990    0.7500    0.0000 C   0  0
    0.0000    1.5000    0.0000 C   0  0
   -1.2990    0.7500    0.0000 C   0  0
   -1.2990   -0.7500    0.0000 C   0  0
    0.0000   -1.5000    0.0000 C   0  0
   -0.2234   -5.5086    0.0000 C   0  0
   -1.2256   -6.6258    0.0000 C   0  0
   -2.6933   -6.3162    0.0000 O   0  0
   -0.7600   -8.0526    0.0000 N   0  0
   -1.7616   -9.1692    0.0000 N   0  0
  1  2  1  0
  2  3  2  0
  3  4  1  0
  4  5  1  0
  5  6  2  0
  6  7  1  0
  7  8  2  0
  8  9  1  0
  5 10  1  0
 10  2  1  0
 10  9  2  0
  1 11  1  0
 11 12  1  0
 12 13  2  0
 12 14  1  0
 14 15  1  0
M  END
> <Smiles>
C(c1c[nH]c(cccc2)c12)CC(=O)NN

> <IC50_uM>
0.812830516

> <pIC50>
6.09

> <Activity>
1

$$$$

  SciTegic10102310092D

 13 15  0  0  0  0            999 V2000
    0.6010   -1.3758    0.0000 N   0  0
    0.6782    0.1100    0.0000 C   0  0  3  0  0  0
    1.0264    1.1914    0.0000 C   0  0  3  0  0  0
   -0.4582    1.9246    0.0000 C   0  0  3  0  0  0
   -2.0529    1.5580    0.0000 C   0  0  3  0  0  0
   -3.5559    0.8248    0.0000 C   0  0
   -3.5559   -1.1547    0.0000 O   0  0
   -3.0610    0.0916    0.0000 C   0  0
   -2.0529    0.5132    0.0000 C   0  0  3  0  0  0
   -1.1731    3.0610    0.0000 C   0  0
   -0.8981    0.7882    0.0000 C   0  0  3  0  0  0
    2.4265    1.7299    0.0000 Cl  0  0
    1.8630   -2.1865    0.0000 O   0  0
  2  1  1  4
  2  3  1  0
  3  4  1  0
  4  5  1  0
  5  6  1  4
  6  7  1  0
  7  8  1  0
  5  9  1  0
  9  8  1  4
  4 10  1  4
 11 10  1  4
 11  2  1  0
 11  9  1  0
  3 12  1  4
  1 13  2  0
M  END
> <Smiles>
N(C1C(C(C(COC2)C23)CC13)Cl)=O

> <IC50_uM>
0.812830516

> <pIC50>
6.09

> <Activity>
1

$$$$

  SciTegic10102310092D

 13 13  0  0  0  0            999 V2000
    2.5988   -1.5004    0.0000 S   0  0
    1.2990   -0.7500    0.0000 C   0  0
    1.2990    0.7500    0.0000 C   0  0
    0.0000    1.5000    0.0000 C   0  0
   -1.2990    0.7500    0.0000 C   0  0
   -2.5981    1.5000    0.0000 N   0  0
   -1.2990   -0.7500    0.0000 C   0  0
    0.0000   -1.5000    0.0000 C   0  0
    2.5983   -3.0004    0.0000 O   0  0
    3.8975   -2.2510    0.0000 O   0  0
    3.8990   -0.7508    0.0000 C   0  0
    3.8995    0.7492    0.0000 O   0  0
    5.1981   -1.5008    0.0000 O   0  0
  1  2  1  0
  2  3  2  0
  3  4  1  0
  4  5  2  0
  5  6  1  0
  5  7  1  0
  7  8  2  0
  8  2  1  0
  1  9  2  0
  1 10  2  0
  1 11  1  0
 11 12  1  0
 11 13  2  0
M  END
> <Smiles>
S(c1ccc(N)cc1)(=O)(=O)C(O)=O

> <IC50_uM>
0.812830516

> <pIC50>
6.09

> <Activity>
1

$$$$

  SciTegic10102310092D

 15 16  0  0  0  0            999 V2000
    2.5973   -1.5031    0.0000 N   0  0
    1.2990   -0.7500    0.0000 C   0  0
    1.2990    0.7500    0.0000 C   0  0
    0.0000    1.5000    0.0000 C   0  0
   -1.2990    0.7500    0.0000 C   0  0
   -2.5981    1.5000    0.0000 O   0  0
   -3.8971    0.7500    0.0000 C   0  0
   -5.1962    1.5000    0.0000 O   0  0
   -3.8971   -0.7500    0.0000 C   0  0
   -2.5981   -1.5000    0.0000 C   0  0
   -1.2990   -0.7500    0.0000 C   0  0
    0.0000   -1.5000    0.0000 C   0  0
    2.5951   -3.0039    0.0000 C   0  0
    3.8926   -3.7566    0.0000 O   0  0
    1.2948   -3.7516    0.0000 C   0  0
  1  2  1  0
  2  3  2  0
  3  4  1  0
  4  5  2  0
  5  6  1  0
  6  7  1  0
  7  8  2  0
  7  9  1  0
  9 10  2  0
  5 11  1  0
 11 10  1  0
 11 12  2  0
 12  2  1  0
  1 13  1  0
 13 14  2  0
 13 15  1  0
M  END
> <Smiles>
N(c1ccc(OC(=O)C=C2)c2c1)C(=O)C

> <IC50_uM>
0.812830516

> <pIC50>
6.09

> <Activity>
1

$$$$

  SciTegic10102310092D

 15 17  0  0  0  0            999 V2000
   -0.6923   -4.0811    0.0000 O   0  0
    0.3114   -2.9665    0.0000 C   0  0
    1.8032   -3.1233    0.0000 C   0  0
    2.4133   -1.7530    0.0000 C   0  0
    1.2990   -0.7500    0.0000 C   0  0  3  0  0  0
    1.2990    0.7500    0.0000 C   0  0
    0.0000    1.5000    0.0000 N   0  0
   -1.2990    0.7500    0.0000 C   0  0
   -2.5981    1.5000    0.0000 C   0  0
   -3.8971    0.7500    0.0000 C   0  0
   -3.8971   -0.7500    0.0000 C   0  0
   -2.5981   -1.5000    0.0000 C   0  0
   -1.2990   -0.7500    0.0000 C   0  0
    2.5981    1.5000    0.0000 O   0  0
    0.0000   -1.5000    0.0000 N   0  0
  1  2  2  0
  2  3  1  0
  3  4  1  0
  5  4  1  4
  5  6  1  0
  6  7  1  0
  7  8  1  0
  8  9  2  0
  9 10  1  0
 10 11  2  0
 11 12  1  0
  8 13  1  0
 13 12  2  0
  6 14  2  0
  5 15  1  0
 15  2  1  0
 15 13  1  0
M  END
> <Smiles>
O=C1CCC(C(Nc(cccc2)c23)=O)N13

> <IC50_uM>
0.812830516

> <pIC50>
6.09

> <Activity>
1

$$$$

  SciTegic10102310092D

 13 13  0  0  0  0            999 V2000
    1.6307   -2.2444    0.0000 S   0  0
    0.7500   -1.0323    0.0000 C   0  0
    1.2135    0.3943    0.0000 N   0  0
    0.0000    1.2760    0.0000 C   0  0
   -1.2135    0.3943    0.0000 N   0  0
   -0.7500   -1.0323    0.0000 C   0  0
   -1.6317   -2.2458    0.0000 N   0  0
    2.6401    0.8578    0.0000 C   0  0
    1.0201   -3.6145    0.0000 O   0  0
    2.5118   -3.4583    0.0000 O   0  0
    3.1234   -2.0885    0.0000 N   0  0
    4.0050   -3.3020    0.0000 C   0  0
    3.7339   -0.7183    0.0000 C   0  0
  1  2  1  0
  2  3  1  0
  3  4  1  0
  4  5  2  0
  5  6  1  0
  6  2  2  0
  6  7  1  0
  3  8  1  0
  1  9  2  0
  1 10  2  0
  1 11  1  0
 11 12  1  0
 11 13  1  0
M  END
> <Smiles>
S(c1n(cnc1N)C)(=O)(=O)N(C)C

> <IC50_uM>
0.812830516

> <pIC50>
6.09

> <Activity>
1

$$$$

  SciTegic10102310092D

 12 14  0  0  0  0            999 V2000
   -6.5930    1.3079    0.0000 O   0  0
   -5.3543    0.4618    0.0000 C   0  0
   -4.7303   -0.5991    0.0000 N   0  0
   -1.8597   -1.0734    0.0000 C   0  0  3  0  0  0
   -0.6116   -1.0734    0.0000 C   0  0
    0.0000    0.0000    0.0000 C   0  0
   -0.6240    1.0734    0.0000 C   0  0
   -1.8721    1.0734    0.0000 C   0  0
   -2.6959   -1.9970    0.0000 C   0  0
   -3.8441   -1.4977    0.0000 C   0  0
   -3.7069   -0.2496    0.0000 C   0  0
   -2.4837    0.0000    0.0000 C   0  0  3  0  0  0
  1  2  2  0
  2  3  1  0
  4  3  1  4
  4  5  1  0
  5  6  1  0
  6  7  2  0
  7  8  1  0
  4  9  1  0
  9 10  1  0
 10 11  1  0
  4 12  1  0
 12  2  1  0
 12  8  1  4
 12 11  1  0
M  END
> <Smiles>
O=C1NC(CC=CC2)(CCC3)C123

> <IC50_uM>
0.812830516

> <pIC50>
6.09

> <Activity>
1

$$$$

  SciTegic10102310092D

 14 14  0  0  0  0            999 V2000
    1.6332   -2.2426    0.0000 N   0  3
    0.7500   -1.0323    0.0000 C   0  0
    1.2135    0.3943    0.0000 N   0  0
    0.0000    1.2760    0.0000 C   0  0
   -1.2135    0.3943    0.0000 C   0  0
   -0.7500   -1.0323    0.0000 N   0  0
   -1.6332   -2.2426    0.0000 C   0  0
   -3.1255   -2.0835    0.0000 C   0  0  3  0  0  0
   -3.7332   -0.7122    0.0000 O   0  0
   -4.0102   -3.2959    0.0000 C   0  0
   -5.5026   -3.1369    0.0000 O   0  0
   -6.3868   -4.3486    0.0000 C   0  0
    1.0255   -3.6140    0.0000 O   0  5
    3.1247   -2.0836    0.0000 O   0  0
  1  2  1  0
  2  3  2  0
  3  4  1  0
  4  5  2  0
  5  6  1  0
  6  2  1  0
  6  7  1  0
  7  8  1  0
  8  9  1  4
  8 10  1  0
 10 11  1  0
 11 12  1  0
  1 13  1  0
  1 14  2  0
M  CHG  2   1   1  13  -1
M  END
> <Smiles>
[N+](c1nccn1CC(O)COC)([O-])=O

> <IC50_uM>
0.812830516

> <pIC50>
6.09

> <Activity>
1

$$$$

  SciTegic10102310092D

 15 17  0  0  0  0            999 V2000
    2.5981   -1.5000    0.0000 O   0  0
    1.2990   -0.7500    0.0000 C   0  0
    1.2990    0.7500    0.0000 C   0  0
    0.0000    1.5000    0.0000 C   0  0
   -1.2990    0.7500    0.0000 N   0  0
   -1.2990   -0.7500    0.0000 C   0  0
   -2.4133   -1.7530    0.0000 O   0  0
   -1.8032   -3.1233    0.0000 C   0  0  3  0  0  0
   -2.5532   -4.4223    0.0000 C   0  0
   -0.3114   -2.9665    0.0000 C   0  0
    0.0000   -1.5000    0.0000 C   0  0
    0.0000    3.0000    0.0000 C   0  0
    1.2990    3.7500    0.0000 C   0  0
    2.5981    3.0000    0.0000 C   0  0
    2.5981    1.5000    0.0000 C   0  0
  1  2  2  0
  2  3  1  0
  3  4  2  0
  4  5  1  0
  5  6  1  0
  6  7  1  0
  7  8  1  0
  8  9  1  4
  8 10  1  0
  6 11  2  0
 11  2  1  0
 11 10  1  0
  4 12  1  0
 12 13  2  0
 13 14  1  0
 14 15  2  0
 15  3  1  0
M  END
> <Smiles>
O=C1c2c(NC(OC(C)C3)=C13)cccc2

> <IC50_uM>
0.812830516

> <pIC50>
6.09

> <Activity>
1

$$$$

  SciTegic10102310092D

 15 15  0  0  0  0            999 V2000
    2.5973   -1.5031    0.0000 C   0  0
    1.2990   -0.7500    0.0000 C   0  0
    1.2990    0.7500    0.0000 C   0  0
    0.0000    1.5000    0.0000 C   0  0
   -1.2990    0.7500    0.0000 C   0  0
   -2.5981    1.5000    0.0000 C   0  0
   -1.2990   -0.7500    0.0000 C   0  0
    0.0000   -1.5000    0.0000 C   0  0
   -0.0031   -3.0008    0.0000 N   0  0
   -1.3032   -3.7490    0.0000 C   0  0
    1.2947   -3.7531    0.0000 C   0  0
   -0.0031    3.0008    0.0000 C   0  0
   -1.3032    3.7490    0.0000 O   0  0
    2.5981    1.5000    0.0000 C   0  0
    2.5951   -3.0031    0.0000 O   0  0
  1  2  1  0
  2  3  2  0
  3  4  1  0
  4  5  2  0
  5  6  1  0
  5  7  1  0
  7  8  2  0
  8  2  1  0
  8  9  1  0
  9 10  1  0
  9 11  1  0
  4 12  1  0
 12 13  2  0
  3 14  1  0
  1 15  2  0
M  END
> <Smiles>
C(c1c(c(c(C)cc1N(C)C)C=O)C)=O

> <IC50_uM>
0.812830516

> <pIC50>
6.09

> <Activity>
1

$$$$

  SciTegic10102310092D

 13 14  0  0  0  0            999 V2000
    1.6332   -2.2426    0.0000 O   0  0
    0.7500   -1.0323    0.0000 C   0  0  3  0  0  0
    1.2135    0.3943    0.0000 S   0  0
    0.0000    1.2760    0.0000 C   0  0
   -1.2135    0.3943    0.0000 C   0  0  3  0  0  0
   -2.7115    0.3949    0.0000 O   0  0
   -3.1750   -1.0317    0.0000 C   0  0
   -4.6016   -1.4952    0.0000 O   0  0
   -1.9615   -1.9133    0.0000 O   0  0
   -0.7500   -1.0323    0.0000 C   0  0  3  0  0  0
    3.1255   -2.0835    0.0000 C   0  0
    4.0097   -3.2952    0.0000 O   0  0
    3.7332   -0.7121    0.0000 C   0  0
  2  1  1  4
  2  3  1  0
  3  4  1  0
  5  4  1  4
  5  6  1  0
  6  7  1  0
  7  8  2  0
  7  9  1  0
  5 10  1  0
 10  2  1  0
 10  9  1  4
  1 11  1  0
 11 12  2  0
 11 13  1  0
M  END
> <Smiles>
O(C1SCC(OC(=O)O2)C12)C(=O)C

> <IC50_uM>
0.812830516

> <pIC50>
6.09

> <Activity>
1

$$$$

  SciTegic10102310092D

 15 16  0  0  0  0            999 V2000
    2.6003   -1.4977    0.0000 O   0  0
    1.2990   -0.7500    0.0000 C   0  0
    1.2990    0.7500    0.0000 C   0  0
    0.0000    1.5000    0.0000 C   0  0
   -1.2990    0.7500    0.0000 C   0  0
   -1.2990   -0.7500    0.0000 C   0  0
    0.0000   -1.5000    0.0000 C   0  0
    0.0000   -3.0008    0.0000 C   0  0
   -1.2122   -3.8625    0.0000 N   0  0
   -0.7464   -5.2884    0.0000 C   0  0
   -2.2359   -5.1116    0.0000 C   0  0
   -0.1138   -6.6485    0.0000 C   0  0
    0.7536   -5.2860    0.0000 C   0  0
    1.2149   -3.8587    0.0000 O   0  0
    3.8983   -0.7459    0.0000 C   0  0
  1  2  1  0
  2  3  2  0
  3  4  1  0
  4  5  2  0
  5  6  1  0
  6  7  2  0
  7  2  1  0
  7  8  1  0
  8  9  2  0
  9 10  1  0
 10 11  1  0
 10 12  1  0
 10 13  1  0
 13 14  1  0
 14  8  1  0
  1 15  1  0
M  END
> <Smiles>
O(c1ccccc1C2=NC(C)(C)CO2)C

> <IC50_uM>
0.812830516

> <pIC50>
6.09

> <Activity>
1

$$$$

  SciTegic10102310092D

 13 13  0  0  0  0            999 V2000
    1.6281   -2.2462    0.0000 C   0  0  3  0  0  0
    0.7500   -1.0323    0.0000 N   0  0
    1.2135    0.3943    0.0000 C   0  0
    0.0000    1.2760    0.0000 C   0  0
   -1.2135    0.3943    0.0000 C   0  0
   -0.7500   -1.0323    0.0000 C   0  0
    3.1213   -2.0950    0.0000 C   0  0
    3.9992   -3.3114    0.0000 C   0  0
    3.7362   -0.7269    0.0000 C   0  0
    1.0157   -3.6164    0.0000 C   0  0
   -0.4763   -3.7706    0.0000 C   0  0
    1.8954   -4.8324    0.0000 C   0  0
    2.7745   -6.0478    0.0000 C   0  0
  1  2  1  4
  2  3  1  0
  3  4  1  0
  4  5  1  0
  5  6  1  0
  6  2  1  0
  1  7  1  0
  7  8  1  0
  7  9  1  0
  1 10  1  0
 10 11  1  0
 10 12  2  0
 12 13  2  0
M  END
> <Smiles>
C(N1CCCC1)(C(C)C)C(C)=C=C

> <IC50_uM>
0.812830516

> <pIC50>
6.09

> <Activity>
1

$$$$

  SciTegic10102310092D

 15 17  0  0  0  0            999 V2000
    2.1079    0.9017    0.0000 O   0  0
    2.4579    1.8385    0.0000 C   0  0
    3.2773    1.5387    0.0000 C   0  0  3  0  0  0
    1.9184    0.5395    0.0000 C   0  0
    0.2598    1.4788    0.0000 C   0  0  3  0  0  0
    0.8593    2.9775    0.0000 N   0  0
    0.0636    3.5833    0.0000 C   0  0
    2.3580    4.1166    0.0000 C   0  0
    3.5570    3.4571    0.0000 C   0  0
   -0.4396    2.4180    0.0000 C   0  0
   -2.1582    3.2573    0.0000 C   0  0
   -2.0783    3.8768    0.0000 C   0  0
   -0.4796    3.4371    0.0000 N   0  0
    0.2254    4.7611    0.0000 C   0  0
    0.5196    2.5778    0.0000 C   0  0
  1  2  2  0
  2  3  1  0
  3  4  1  4
  5  4  1  4
  5  6  1  0
  6  7  1  0
  6  8  1  0
  8  9  1  0
  9  3  1  0
  5 10  1  0
 10 11  1  0
 11 12  2  0
 12 13  1  0
 13 14  1  0
 10 15  2  0
 15  2  1  0
 15 13  1  0
M  END
> <Smiles>
O=C1C2CC(N(C)CC2)c(ccn3C)c13

> <IC50_uM>
0.812830516

> <pIC50>
6.09

> <Activity>
1

$$$$

  SciTegic10102310092D

 11 12  0  0  0  0            999 V2000
    1.2990   -0.7500    0.0000 C   0  0
    1.2990    0.7500    0.0000 C   0  0
    2.5981    1.5000    0.0000 C   0  0
    2.5981    3.0000    0.0000 C   0  0
    1.2990    3.7500    0.0000 C   0  0
    0.0000    3.0000    0.0000 N   0  0
    0.0000    1.5000    0.0000 C   0  0
   -1.2990    0.7500    0.0000 C   0  0
   -2.5981    1.5000    0.0000 O   0  0
   -1.2990   -0.7500    0.0000 C   0  0
    0.0000   -1.5000    0.0000 C   0  0
  1  2  2  0
  2  3  1  0
  3  4  2  0
  4  5  1  0
  5  6  2  0
  2  7  1  0
  7  6  1  0
  7  8  2  0
  8  9  1  0
  8 10  1  0
 10 11  2  0
 11  1  1  0
M  END
> <Smiles>
c1c(cccn2)c2c(O)cc1

> <IC50_uM>
0.812830516

> <pIC50>
6.09

> <Activity>
1

$$$$

  SciTegic10102310092D

 15 18  0  0  0  0            999 V2000
    3.6011    0.0286    0.0000 C   0  0
    5.1011    0.0382    0.0000 O   0  0
    2.7272   -1.1906    0.0000 C   0  0
    1.2990   -0.7500    0.0000 C   0  0
    1.2990    0.7500    0.0000 C   0  0  3  0  0  0
    0.0000    1.5000    0.0000 C   0  0
   -1.2990    0.7500    0.0000 C   0  0  3  0  0  0
   -0.7500   -0.7205    0.0000 N   0  0  3  0  0  0
   -1.2135   -2.1445    0.0000 C   0  0
    0.0000   -3.0262    0.0000 C   0  0
    1.2135   -2.1445    0.0000 C   0  0
    0.7500   -0.7205    0.0000 C   0  0  3  0  0  0
   -1.2990   -0.7500    0.0000 C   0  0
    0.0000   -1.5000    0.0000 C   0  0
    2.7117    1.2364    0.0000 O   0  0
  1  2  2  0
  1  3  1  0
  3  4  2  0
  4  5  1  0
  5  6  1  4
  7  6  1  4
  7  8  1  0
  8  9  1  4
  9 10  1  0
 10 11  1  0
  8 12  1  0
 12  5  1  0
 12 11  1  4
  7 13  1  0
 13 14  2  0
 14  4  1  0
  5 15  1  0
 15  1  1  0
M  END
> <Smiles>
C1(=O)C=C2C3(CC(N(CCC4)C34)C=C2)O1

> <IC50_uM>
0.812830516

> <pIC50>
6.09

> <Activity>
1

$$$$

  SciTegic10102310092D

 15 16  0  0  0  0            999 V2000
    1.2990   -0.7500    0.0000 C   0  0
    2.5981   -1.5000    0.0000 N   0  0
    1.2990    0.7500    0.0000 C   0  0
    0.0000    1.5000    0.0000 C   0  0
    0.3114    2.9665    0.0000 N   0  0
    1.8032    3.1233    0.0000 C   0  0
    2.4133    1.7530    0.0000 N   0  0
    3.8794    1.4442    0.0000 C   0  0
    4.8823    2.5608    0.0000 O   0  0
    6.3509    2.2515    0.0000 C   0  0
    7.3537    3.3681    0.0000 C   0  0
    8.3561    4.4841    0.0000 C   0  0
   -1.2990    0.7500    0.0000 N   0  0
   -1.2990   -0.7500    0.0000 C   0  0
    0.0000   -1.5000    0.0000 N   0  0
  1  2  1  0
  1  3  2  0
  3  4  1  0
  4  5  1  0
  5  6  2  0
  6  7  1  0
  7  3  1  0
  7  8  1  0
  8  9  1  0
  9 10  1  0
 10 11  1  0
 11 12  3  0
  4 13  2  0
 13 14  1  0
 14 15  2  0
 15  1  1  0
M  END
> <Smiles>
c1(N)c2c(ncn2COCC#C)ncn1

> <IC50_uM>
0.812830516

> <pIC50>
6.09

> <Activity>
1

$$$$

  SciTegic10102310092D

 15 16  0  0  0  0            999 V2000
    1.2990   -0.7500    0.0000 C   0  0
    2.5981   -1.5000    0.0000 N   0  0
    1.2990    0.7500    0.0000 C   0  0
    0.0000    1.5000    0.0000 C   0  0
    0.3114    2.9665    0.0000 N   0  0
   -0.6890    4.0818    0.0000 C   0  0
   -0.2235    5.5086    0.0000 O   0  0
   -1.2256    6.6258    0.0000 C   0  0
   -0.7601    8.0526    0.0000 C   0  0
   -0.2948    9.4786    0.0000 C   0  0
    1.8032    3.1233    0.0000 C   0  0
    2.4133    1.7530    0.0000 N   0  0
   -1.2990    0.7500    0.0000 N   0  0
   -1.2990   -0.7500    0.0000 C   0  0
    0.0000   -1.5000    0.0000 N   0  0
  1  2  1  0
  1  3  2  0
  3  4  1  0
  4  5  1  0
  5  6  1  0
  6  7  1  0
  7  8  1  0
  8  9  1  0
  9 10  3  0
  5 11  1  0
 11 12  2  0
 12  3  1  0
  4 13  2  0
 13 14  1  0
 14 15  2  0
 15  1  1  0
M  END
> <Smiles>
c1(N)c2c(n(COCC#C)cn2)ncn1

> <IC50_uM>
0.812830516

> <pIC50>
6.09

> <Activity>
1

$$$$

  SciTegic10102310092D

 15 15  0  0  0  0            999 V2000
    1.2990   -0.7500    0.0000 C   0  0
    1.2990    0.7500    0.0000 C   0  0
    0.0000    1.5000    0.0000 C   0  0
   -1.2990    0.7500    0.0000 C   0  0
   -2.6003    1.4977    0.0000 C   0  0
   -3.8990    0.7455    0.0000 C   0  0
   -5.2003    1.4932    0.0000 N   0  0
   -6.4990    0.7409    0.0000 C   0  0
   -7.8003    1.4887    0.0000 C   0  0
   -9.0990    0.7364    0.0000 C   0  0
  -10.3996    1.4837    0.0000 C   0  0
   -5.2060    2.9940    0.0000 C   0  0
   -6.5074    3.7399    0.0000 O   0  0
   -1.2990   -0.7500    0.0000 C   0  0
    0.0000   -1.5000    0.0000 C   0  0
  1  2  2  0
  2  3  1  0
  3  4  2  0
  4  5  1  0
  5  6  1  0
  6  7  1  0
  7  8  1  0
  8  9  1  0
  9 10  1  0
 10 11  1  0
  7 12  1  0
 12 13  2  0
  4 14  1  0
 14 15  2  0
 15  1  1  0
M  END
> <Smiles>
c1ccc(CCN(CCCC)C=O)cc1

> <IC50_uM>
0.812830516

> <pIC50>
6.09

> <Activity>
1

$$$$

  SciTegic10102310092D

 15 16  0  0  0  0            999 V2000
    1.2990   -0.7500    0.0000 C   0  0
    1.2990    0.7500    0.0000 C   0  0
    2.5981    1.5000    0.0000 C   0  0
    0.0000    1.5000    0.0000 C   0  0
   -0.0031    3.0008    0.0000 C   0  0
   -1.3039    3.7494    0.0000 C   0  0
   -1.4470    5.2297    0.0000 C   0  0
   -0.3298    6.2307    0.0000 O   0  0
   -2.6532    3.1236    0.0000 N   0  0
   -3.6607    4.2349    0.0000 C   0  0
   -5.1520    4.0729    0.0000 C   0  0
   -2.9153    5.5365    0.0000 O   0  0
   -1.2990    0.7500    0.0000 C   0  0
   -1.2990   -0.7500    0.0000 C   0  0
    0.0000   -1.5000    0.0000 C   0  0
  1  2  2  0
  2  3  1  0
  2  4  1  0
  4  5  1  0
  5  6  2  0
  6  7  1  0
  7  8  2  0
  6  9  1  0
  9 10  2  0
 10 11  1  0
 10 12  1  0
 12  7  1  0
  4 13  2  0
 13 14  1  0
 14 15  2  0
 15  1  1  0
M  END
> <Smiles>
c1c(C)c(\C=C(\C2=O)/N=C(C)O2)ccc1

> <IC50_uM>
0.812830516

> <pIC50>
6.09

> <Activity>
1

$$$$

  SciTegic10102310092D

 13 13  0  0  0  0            999 V2000
    2.5951   -3.0031    0.0000 S   0  0
    2.5973   -1.5031    0.0000 C   0  0
    1.2990   -0.7500    0.0000 N   0  0
    1.2990    0.7500    0.0000 C   0  0
    0.0000    1.5000    0.0000 C   0  0
   -1.2990    0.7500    0.0000 N   0  0
   -2.6003    1.4977    0.0000 C   0  0
   -3.8990    0.7455    0.0000 O   0  0
   -5.2003    1.4932    0.0000 C   0  0
   -6.4983    0.7413    0.0000 C   0  0
   -2.6030    2.9977    0.0000 O   0  0
   -1.2990   -0.7500    0.0000 C   0  0
    0.0000   -1.5000    0.0000 C   0  0
  1  2  2  0
  2  3  1  0
  3  4  1  0
  4  5  1  0
  5  6  1  0
  6  7  1  0
  7  8  1  0
  8  9  1  0
  9 10  1  0
  7 11  2  0
  6 12  1  0
 12 13  1  0
 13  3  1  0
M  END
> <Smiles>
S=CN1CCN(C(OCC)=O)CC1

> <IC50_uM>
0.812830516

> <pIC50>
6.09

> <Activity>
1

$$$$

  SciTegic10102310092D

 15 15  0  0  0  0            999 V2000
    1.2990   -0.7500    0.0000 C   0  0
    1.2990    0.7500    0.0000 C   0  0
    0.0000    1.5000    0.0000 C   0  0
   -1.2990    0.7500    0.0000 C   0  0
   -2.6003    1.4977    0.0000 C   0  0
   -3.8990    0.7455    0.0000 C   0  0
   -3.8978   -0.7554    0.0000 C   0  0
   -3.8966   -2.2554    0.0000 N   0  0
   -5.2012    1.4918    0.0000 C   0  0
   -5.2054    2.9918    0.0000 O   0  0
   -6.4983    0.7385    0.0000 O   0  0
   -1.2990   -0.7500    0.0000 C   0  0
    0.0000   -1.5000    0.0000 C   0  0
    0.0031   -3.0008    0.0000 O   0  0
    1.3032   -3.7490    0.0000 C   0  0
  1  2  2  0
  2  3  1  0
  3  4  2  0
  4  5  1  0
  5  6  2  0
  6  7  1  0
  7  8  3  0
  6  9  1  0
  9 10  1  0
  9 11  2  0
  4 12  1  0
 12 13  2  0
 13  1  1  0
 13 14  1  0
 14 15  1  0
M  END
> <Smiles>
c1ccc(\C=C(/C#N)\C(O)=O)cc1OC

> <IC50_uM>
0.812830516

> <pIC50>
6.09

> <Activity>
1

$$$$

  SciTegic10102310092D

 13 12  0  0  0  0            999 V2000
    0.0007    0.0004    0.0000 O   0  0
    1.3000    0.7500    0.0000 C   0  0
    2.6000    0.0000    0.0000 C   0  0
    3.9000    0.7500    0.0000 C   0  0
    5.2000    0.0000    0.0000 S   0  0
    6.5000    0.7500    0.0000 C   0  0
    7.7999    0.0000    0.0000 C   0  0
    9.0999    0.7500    0.0000 C   0  0
   10.3999    0.0000    0.0000 O   0  0
   11.6999    0.7500    0.0000 C   0  0
   12.9992    0.0004    0.0000 C   0  0
    9.0999    2.2500    0.0000 O   0  0
    1.3000    2.2500    0.0000 O   0  0
  1  2  2  0
  2  3  1  0
  3  4  1  0
  4  5  1  0
  5  6  1  0
  6  7  2  0
  7  8  1  0
  8  9  1  0
  9 10  1  0
 10 11  1  0
  8 12  2  0
  2 13  1  0
M  END
> <Smiles>
O=C(CCS\C=C\C(OCC)=O)O

> <IC50_uM>
0.812830516

> <pIC50>
6.09

> <Activity>
1

$$$$

  SciTegic10102310092D

 14 16  0  0  0  0            999 V2000
    1.2990   -0.7500    0.0000 C   0  0
    1.2990    0.7500    0.0000 N   0  0
    0.0000    1.5000    0.0000 C   0  0
   -0.3115    2.9665    0.0000 N   0  0
   -1.8032    3.1233    0.0000 C   0  0
   -2.9161    4.1261    0.0000 C   0  0
   -4.2151    3.3761    0.0000 S   0  0
   -3.9032    1.9089    0.0000 C   0  0
   -3.4180    0.4895    0.0000 C   0  0
   -5.3657    2.2421    0.0000 C   0  0
   -2.4133    1.7530    0.0000 N   0  0
   -1.2990    0.7500    0.0000 C   0  0
   -1.2990   -0.7500    0.0000 C   0  0
    0.0000   -1.5000    0.0000 C   0  0
  1  2  2  0
  2  3  1  0
  3  4  1  0
  4  5  2  0
  5  6  1  0
  6  7  1  0
  7  8  1  0
  8  9  1  0
  8 10  1  0
  5 11  1  0
 11  8  1  0
  3 12  2  0
 12 11  1  0
 12 13  1  0
 13 14  2  0
 14  1  1  0
M  END
> <Smiles>
c1nc(nc(CSC2(C)C)n23)c3cc1

> <IC50_uM>
0.812830516

> <pIC50>
6.09

> <Activity>
1

$$$$

  SciTegic10102310092D

 14 14  0  0  0  0            999 V2000
    0.7500   -1.0323    0.0000 C   0  0
    1.2135    0.3943    0.0000 N   0  0
    0.0000    1.2760    0.0000 C   0  0
   -1.2135    0.3943    0.0000 C   0  0
   -0.7500   -1.0323    0.0000 C   0  0
    0.0000    2.7760    0.0000 O   0  0
    2.6375    0.8603    0.0000 O   0  0
    2.9474    2.3287    0.0000 C   0  0
    4.3738    2.7955    0.0000 N   0  0
    5.4903    1.7938    0.0000 C   0  0
    4.6837    4.2640    0.0000 N   0  0
    6.1093    4.7305    0.0000 O   0  0
    1.8309    3.3305    0.0000 O   0  0
    1.6317   -2.2458    0.0000 O   0  0
  1  2  1  0
  2  3  1  0
  3  4  1  0
  4  5  1  0
  5  1  1  0
  3  6  2  0
  2  7  1  0
  7  8  1  0
  8  9  1  0
  9 10  1  0
  9 11  1  0
 11 12  2  0
  8 13  2  0
  1 14  2  0
M  END
> <Smiles>
C1(N(C(CC1)=O)OC(N(C)N=O)=O)=O

> <IC50_uM>
0.812830516

> <pIC50>
6.09

> <Activity>
1

$$$$

  SciTegic10102310092D

 15 15  0  0  0  0            999 V2000
    1.2990   -0.7500    0.0000 C   0  0
    1.2990    0.7500    0.0000 C   0  0
    0.0000    1.5000    0.0000 C   0  0
   -0.0031    3.0008    0.0000 C   0  0
   -1.3039    3.7494    0.0000 C   0  0
   -1.3070    5.2502    0.0000 C   0  0
   -0.0093    6.0025    0.0000 C   0  0
   -2.6071    5.9984    0.0000 O   0  0
   -2.6008    2.9940    0.0000 C   0  0
   -3.9025    3.7395    0.0000 C   0  0
   -2.5961    1.4940    0.0000 O   0  0
   -1.2990    0.7500    0.0000 C   0  0
   -1.2990   -0.7500    0.0000 C   0  0
    0.0000   -1.5000    0.0000 C   0  0
    0.0000   -3.0000    0.0000 O   0  0
  1  2  2  0
  2  3  1  0
  3  4  1  0
  4  5  2  0
  5  6  1  0
  6  7  1  0
  6  8  2  0
  5  9  1  0
  9 10  1  0
  9 11  2  0
  3 12  2  0
 12 13  1  0
 13 14  2  0
 14  1  1  0
 14 15  1  0
M  END
> <Smiles>
c1cc(C=C(C(C)=O)C(C)=O)ccc1O

> <IC50_uM>
0.812830516

> <pIC50>
6.09

> <Activity>
1

$$$$

  SciTegic10102310092D

 13 14  0  0  0  0            999 V2000
    1.6852   -0.3846    0.0000 C   0  0  3  0  0  0
    1.3514    1.0778    0.0000 N   0  0
    2.6395    1.8472    0.0000 C   0  0
    3.7691    0.8603    0.0000 C   0  0
    3.1796   -0.5190    0.0000 C   0  0
    0.0000    1.7286    0.0000 S   0  0
    1.3210    2.4391    0.0000 O   0  0
   -1.3210    2.4392    0.0000 O   0  0
   -1.3515    1.0777    0.0000 C   0  0
   -1.6852   -0.3847    0.0000 C   0  0
   -0.7500   -1.5574    0.0000 N   0  0
    0.7500   -1.5574    0.0000 C   0  0
    1.4008   -2.9088    0.0000 O   0  0
  1  2  1  0
  2  3  1  0
  3  4  1  0
  4  5  1  0
  1  5  1  4
  2  6  1  0
  6  7  2  0
  6  8  2  0
  6  9  1  0
  9 10  1  0
 10 11  1  0
 11 12  1  0
 12  1  1  0
 12 13  2  0
M  END
> <Smiles>
C12N(CCC1)S(=O)(=O)CCNC2=O

> <IC50_uM>
0.812830516

> <pIC50>
6.09

> <Activity>
1

$$$$

  SciTegic10102310092D

 15 19  0  0  0  0            999 V2000
    0.0000   -0.5220    0.0000 C   0  0  3  0  0  0
   -1.4935    0.0000    0.0000 C   0  0
   -1.4935    1.5225    0.0000 C   0  0  3  0  0  0
    0.0435    2.0010    0.0000 C   0  0  3  0  0  0
    0.5945    3.9440    0.0000 C   0  0
    0.8555    2.6535    0.0000 C   0  0  3  0  0  0
   -0.6090    2.1315    0.0000 C   0  0  3  0  0  0
   -0.5655    0.5510    0.0000 C   0  0  3  0  0  0
    0.9280    0.7685    0.0000 C   0  0  3  0  0  0
    1.8560    1.4355    0.0000 C   0  0  3  0  0  0
    2.8245    1.1866    0.0000 C   0  0
    0.9280    0.0870    0.0000 C   0  0  3  0  0  0
    1.4019   -1.3329    0.0000 N   0  0
    2.8723   -1.6338    0.0000 C   0  0
    3.3475   -3.0565    0.0000 C   0  0
  1  2  1  4
  3  2  1  4
  3  4  1  0
  4  5  1  4
  6  5  1  4
  7  6  1  4
  7  3  1  0
  8  7  1  4
  8  1  1  0
  9  4  1  4
  9  1  1  0
  9 10  1  0
 10  6  1  0
 10 11  1  4
 10 12  1  0
 12  8  1  0
 12 13  1  4
 13 14  1  0
 14 15  1  0
M  END
> <Smiles>
C12CC3C(CC4C3C15)C2C4(C)C5NCC

> <IC50_uM>
0.812830516

> <pIC50>
6.09

> <Activity>
1

$$$$

  SciTegic10102310092D

 14 13  0  0  0  0            999 V2000
    6.5039   -2.2494    0.0000 N   0  0
    6.5070   -3.7494    0.0000 C   0  0
    5.2030   -1.5008    0.0000 C   0  0
    3.9053   -2.2531    0.0000 O   0  0
    5.2000    0.0000    0.0000 N   0  0
    3.9000    0.7500    0.0000 C   0  0
    2.6000    0.0000    0.0000 C   0  0
    1.3000    0.7500    0.0000 N   0  0
    0.0007    0.0004    0.0000 C   0  0
    2.6000   -1.5000    0.0000 O   0  0
    6.5000    0.7500    0.0000 C   0  0
    7.7999    0.0000    0.0000 C   0  0
    7.7999   -1.5000    0.0000 O   0  0
    9.0992    0.7496    0.0000 O   0  0
  1  2  1  0
  1  3  1  0
  3  4  2  0
  3  5  1  0
  5  6  1  0
  6  7  1  0
  7  8  1  0
  8  9  1  0
  7 10  2  0
  5 11  1  0
 11 12  1  0
 12 13  1  0
 12 14  2  0
M  END
> <Smiles>
N(C)C(=O)N(CC(NC)=O)CC(O)=O

> <IC50_uM>
0.812830516

> <pIC50>
6.09

> <Activity>
1

$$$$

  SciTegic10102310092D

 14 16  0  0  0  0            999 V2000
    1.2990   -0.7500    0.0000 C   0  0
    1.2990    0.7500    0.0000 C   0  0
    0.0000    1.5000    0.0000 C   0  0
   -1.2990    0.7500    0.0000 C   0  0
   -2.7248    1.2135    0.0000 N   0  0
   -3.6065    0.0000    0.0000 C   0  0
   -5.1072    0.0000    0.0000 C   0  0
   -6.0557    1.1393    0.0000 N   0  0
   -7.4417    0.5656    0.0000 C   0  0
   -7.3243   -0.9298    0.0000 C   0  0
   -5.8659   -1.2803    0.0000 S   0  0
   -2.7248   -1.2135    0.0000 N   0  0
   -1.2990   -0.7500    0.0000 C   0  0
    0.0000   -1.5000    0.0000 C   0  0
  1  2  2  0
  2  3  1  0
  3  4  2  0
  4  5  1  0
  5  6  1  0
  6  7  1  0
  7  8  2  0
  8  9  1  0
  9 10  1  0
 10 11  1  0
 11  7  1  0
  6 12  2  0
  4 13  1  0
 13 12  1  0
 13 14  2  0
 14  1  1  0
M  END
> <Smiles>
c1ccc([nH]c(C2=NCCS2)n3)c3c1

> <IC50_uM>
0.812830516

> <pIC50>
6.09

> <Activity>
1

$$$$

  SciTegic10102310092D

 15 15  0  0  0  0            999 V2000
    6.4869   -6.7636    0.0000 N   0  0
    5.1894   -6.0109    0.0000 C   0  0
    3.8912   -5.2578    0.0000 N   0  0
    3.8933   -3.7570    0.0000 C   0  0
    5.1929   -3.0062    0.0000 N   0  0
    5.1933   -1.5062    0.0000 C   0  0
    6.4919   -3.7562    0.0000 C   0  0
    2.5951   -3.0039    0.0000 N   0  0
    2.5973   -1.5031    0.0000 C   0  0
    1.2990   -0.7500    0.0000 C   0  0
    1.2990    0.7500    0.0000 C   0  0
    0.0000    1.5000    0.0000 C   0  0
   -1.2990    0.7500    0.0000 C   0  0
   -1.2990   -0.7500    0.0000 C   0  0
    0.0000   -1.5000    0.0000 C   0  0
  1  2  3  0
  2  3  1  0
  3  4  2  0
  4  5  1  0
  5  6  1  0
  5  7  1  0
  4  8  1  0
  8  9  1  0
  9 10  1  0
 10 11  2  0
 11 12  1  0
 12 13  2  0
 13 14  1  0
 14 15  2  0
 15 10  1  0
M  END
> <Smiles>
N#C\N=C(/N(C)C)\NCc1ccccc1

> <IC50_uM>
0.812830516

> <pIC50>
6.09

> <Activity>
1

$$$$

  SciTegic10102310092D

 14 14  0  0  0  0            999 V2000
    0.0000   -1.0607    0.0000 C   0  0  3  0  0  0
   -1.3000   -1.8036    0.0000 C   0  0  3  0  0  0
   -1.2998   -3.3036    0.0000 C   0  0
   -2.5993   -1.0541    0.0000 O   0  0
    1.3022   -1.8052    0.0000 C   0  0
    1.0607    0.0000    0.0000 C   0  0
    2.5607    0.0000    0.0000 O   0  0
    0.0000    1.0607    0.0000 N   0  0
   -1.0607    0.0000    0.0000 C   0  0  3  0  0  0
   -2.5554    0.0031    0.0000 C   0  0
   -3.3039    1.3040    0.0000 C   0  0
   -4.8047    1.3071    0.0000 O   0  0
   -5.5528    2.6073    0.0000 C   0  0
   -2.5516    2.6017    0.0000 O   0  0
  1  2  1  0
  2  3  1  4
  2  4  1  0
  1  5  1  4
  1  6  1  0
  6  7  2  0
  6  8  1  0
  8  9  1  0
  9  1  1  0
  9 10  1  4
 10 11  1  0
 11 12  1  0
 12 13  1  0
 11 14  2  0
M  END
> <Smiles>
C1(C(C)O)(C)C(=O)NC1CC(OC)=O

> <IC50_uM>
0.812830516

> <pIC50>
6.09

> <Activity>
1

$$$$

  SciTegic10102310092D

 41 45  0  0  0  0            999 V2000
    2.5923    1.5001    0.0000 C   0  0
    3.8939    0.7546    0.0000 C   0  0
    5.1903    1.5091    0.0000 C   0  0
    6.4920    0.7636    0.0000 C   0  0
    7.7891    1.5185    0.0000 C   0  0
    9.0856    2.2729    0.0000 N   0  0
    6.4972   -0.7364    0.0000 C   0  0
    5.2007   -1.4909    0.0000 C   0  0
    5.2059   -2.9909    0.0000 C   0  0
    3.8990   -0.7455    0.0000 C   0  0
    2.6003   -1.4977    0.0000 O   0  0
    1.2990   -0.7500    0.0000 C   0  0
    1.2990    0.7500    0.0000 N   0  0
    0.0000    1.5000    0.0000 C   0  0
   -0.0031    3.0008    0.0000 N   0  0
   -1.3039    3.7494    0.0000 C   0  0  3  0  0  0
   -2.6005    2.9949    0.0000 C   0  0
   -3.9021    3.7404    0.0000 C   0  0
   -3.9073    5.2404    0.0000 N   0  0
   -5.2081    5.9890    0.0000 C   0  0
   -5.2111    7.4898    0.0000 C   0  0
   -6.5102    8.2399    0.0000 C   0  0
   -6.5102    9.7399    0.0000 C   0  0
   -5.2111   10.4899    0.0000 C   0  0
   -5.2111   11.9907    0.0000 S   0  0
   -3.9118   12.7403    0.0000 N   0  0
   -6.5097   12.7416    0.0000 O   0  0
   -5.2104   13.4907    0.0000 O   0  0
   -3.9121    9.7399    0.0000 C   0  0
   -3.9121    8.2399    0.0000 C   0  0
   -2.6108    5.9949    0.0000 C   0  0
   -1.3092    5.2494    0.0000 C   0  0  3  0  0  0
   -0.0136    6.0070    0.0000 C   0  0
   -0.0210    7.5070    0.0000 O   0  0
    1.2893    5.2638    0.0000 O   0  0
   -1.2990    0.7500    0.0000 N   0  0
   -1.2990   -0.7500    0.0000 C   0  0
   -2.4133   -1.7530    0.0000 C   0  0
   -1.8032   -3.1233    0.0000 C   0  0
   -0.3114   -2.9665    0.0000 S   0  0
    0.0000   -1.5000    0.0000 C   0  0
  1  2  1  0
  2  3  2  0
  3  4  1  0
  4  5  1  0
  5  6  3  0
  4  7  2  0
  7  8  1  0
  8  9  1  0
  8 10  2  0
 10  2  1  0
 10 11  1  0
 11 12  1  0
 12 13  2  0
 13 14  1  0
 14 15  1  0
 16 15  1  4
 16 17  1  0
 17 18  1  0
 18 19  1  0
 19 20  1  0
 20 21  1  0
 21 22  2  0
 22 23  1  0
 23 24  2  0
 24 25  1  0
 25 26  1  0
 25 27  2  0
 25 28  2  0
 24 29  1  0
 29 30  2  0
 30 21  1  0
 19 31  1  0
 31 32  1  0
 32 16  1  0
 32 33  1  4
 33 34  2  0
 33 35  1  0
 14 36  2  0
 36 37  1  0
 37 38  1  0
 38 39  2  0
 39 40  1  0
 40 41  1  0
 41 12  1  0
 41 37  2  0
M  END
> <Smiles>
Cc1cc(C#N)cc(C)c1Oc1nc(NC2CCN(Cc3ccc(S(N)(=O)=O)cc3)CC2C(=O)O)nc2ccsc12

> <IC50_uM>
0.827

> <pIC50>
6.08249449

> <Activity>
1

$$$$

  SciTegic10102310092D

 27 30  0  0  0  0            999 V2000
    1.8073   -5.7196    0.0000 O   0  0
    2.5551   -4.4192    0.0000 C   0  0
    4.0559   -4.4171    0.0000 N   0  0
    4.8090   -5.7153    0.0000 C   0  0
    6.3098   -5.7131    0.0000 C   0  0
    7.1739   -6.9236    0.0000 C   0  0
    8.5988   -6.4551    0.0000 C   0  0
    8.5936   -4.9551    0.0000 N   0  0
    7.1654   -4.4966    0.0000 N   0  0
    1.8032   -3.1233    0.0000 C   0  0
    2.4133   -1.7530    0.0000 N   0  0
    1.2990   -0.7500    0.0000 C   0  0
    1.2990    0.7500    0.0000 C   0  0
    0.0000    1.5000    0.0000 C   0  0
   -1.2990    0.7500    0.0000 C   0  0
   -2.5981    1.5000    0.0000 Br  0  0
   -1.2990   -0.7500    0.0000 C   0  0
    0.0000   -1.5000    0.0000 C   0  0
    0.3114   -2.9665    0.0000 C   0  0
   -0.6913   -4.0797    0.0000 S   0  0
   -0.2276   -5.5062    0.0000 O   0  0
    0.7759   -4.3916    0.0000 O   0  0
   -2.1595   -3.7683    0.0000 N   0  0
   -3.2523   -4.7770    0.0000 C   0  0
   -4.5516   -4.0276    0.0000 C   0  0
   -4.2404   -2.5602    0.0000 C   0  0
   -2.7487   -2.4028    0.0000 C   0  0
  1  2  2  0
  2  3  1  0
  3  4  1  0
  4  5  1  0
  5  6  2  0
  6  7  1  0
  7  8  2  0
  8  9  1  0
  9  5  1  0
  2 10  1  0
 10 11  1  0
 11 12  1  0
 12 13  2  0
 13 14  1  0
 14 15  2  0
 15 16  1  0
 15 17  1  0
 17 18  2  0
 18 12  1  0
 18 19  1  0
 19 10  2  0
 19 20  1  0
 20 21  2  0
 20 22  2  0
 20 23  1  0
 23 24  1  0
 24 25  1  0
 25 26  1  0
 26 27  1  0
 27 23  1  0
M  END
> <Smiles>
O=C(NCc1ccn[nH]1)c1[nH]c2ccc(Br)cc2c1S(=O)(=O)N1CCCC1

> <IC50_uM>
0.829

> <pIC50>
6.081445469

> <Activity>
1

$$$$

  SciTegic10102310092D

 17 18  0  0  1  0            999 V2000
    2.5981   -1.5000    0.0000 C   0  0
    1.2990   -0.7500    0.0000 C   0  0
    1.2990    0.7500    0.0000 C   0  0
    0.0000    1.5000    0.0000 N   0  0
    0.0000    3.0008    0.0000 C   0  0  2  0  0  0
    1.2121    3.8625    0.0000 C   0  0
    0.7463    5.2884    0.0000 C   0  0  2  0  0  0
    1.6276    6.5001    0.0000 C   0  0
    3.1194    6.3435    0.0000 O   0  0
   -0.7537    5.2860    0.0000 C   0  0  1  0  0  0
   -1.6373    6.4981    0.0000 O   0  0
   -1.2149    3.8587    0.0000 C   0  0
   -1.2990    0.7500    0.0000 C   0  0
   -2.5981    1.5000    0.0000 O   0  0
   -1.2990   -0.7500    0.0000 N   0  0
    0.0000   -1.5000    0.0000 C   0  0
    0.0000   -3.0000    0.0000 O   0  0
  1  2  1  0
  2  3  2  0
  3  4  1  0
  5  4  1  1
  5  6  1  0
  6  7  1  0
  7  8  1  1
  8  9  1  0
  7 10  1  0
 10 11  1  6
 10 12  1  0
 12  5  1  0
  4 13  1  0
 13 14  2  0
 13 15  1  0
 15 16  1  0
 16  2  1  0
 16 17  2  0
M  END
> <Smiles>
Cc1cn([C@@H]2C[C@H](CO)[C@@H](O)C2)c(=O)[nH]c1=O

> <IC50_uM>
0.83

> <pIC50>
6.080921908

> <Activity>
1

$$$$

  SciTegic10102310092D

 35 38  0  0  0  0            999 V2000
    2.5981   -1.5000    0.0000 C   0  0
    1.2990   -0.7500    0.0000 C   0  0
    1.2990    0.7500    0.0000 C   0  0
    0.0000    1.5000    0.0000 C   0  0
    0.0000    3.0008    0.0000 C   0  0
    0.0000    4.5008    0.0000 N   0  0
   -1.2990    0.7500    0.0000 C   0  0
   -1.2990   -0.7500    0.0000 C   0  0
   -2.5981   -1.5000    0.0000 C   0  0
    0.0000   -1.5000    0.0000 C   0  0
    0.0031   -3.0008    0.0000 O   0  0
    1.3039   -3.7494    0.0000 C   0  0
    2.6005   -2.9949    0.0000 N   0  0
    3.9021   -3.7404    0.0000 C   0  0
    5.2008   -2.9882    0.0000 N   0  0
    6.5021   -3.7360    0.0000 C   0  0
    7.8012   -2.9860    0.0000 C   0  0
    9.1002   -3.7360    0.0000 C   0  0
    9.1002   -5.2360    0.0000 N   0  0
   10.3999   -5.9864    0.0000 C   0  0
   11.7002   -5.2385    0.0000 C   0  0
   12.9981   -5.9906    0.0000 C   0  0
   12.9957   -7.4906    0.0000 C   0  0
   11.6954   -8.2385    0.0000 C   0  0
   11.6931   -9.7394    0.0000 S   0  0
   10.3926  -10.4869    0.0000 C   0  0
   12.9904  -10.4922    0.0000 O   0  0
   11.6900  -11.2394    0.0000 O   0  0
   10.3976   -7.4865    0.0000 C   0  0
    7.8012   -5.9860    0.0000 C   0  0
    6.5021   -5.2360    0.0000 C   0  0
    3.9073   -5.2404    0.0000 N   0  0
    2.6108   -5.9949    0.0000 C   0  0
    1.3092   -5.2494    0.0000 C   0  0
    0.0128   -6.0039    0.0000 Br  0  0
  1  2  1  0
  2  3  2  0
  3  4  1  0
  4  5  1  0
  5  6  3  0
  4  7  2  0
  7  8  1  0
  8  9  1  0
  8 10  2  0
 10  2  1  0
 10 11  1  0
 11 12  1  0
 12 13  2  0
 13 14  1  0
 14 15  1  0
 15 16  1  0
 16 17  1  0
 17 18  1  0
 18 19  1  0
 19 20  1  0
 20 21  2  0
 21 22  1  0
 22 23  2  0
 23 24  1  0
 24 25  1  0
 25 26  1  0
 25 27  2  0
 25 28  2  0
 24 29  2  0
 29 20  1  0
 19 30  1  0
 30 31  1  0
 31 16  1  0
 14 32  2  0
 32 33  1  0
 33 34  2  0
 34 12  1  0
 34 35  1  0
M  END
> <Smiles>
Cc1cc(C#N)cc(C)c1Oc1nc(NC2CCN(c3cccc(S(C)(=O)=O)c3)CC2)ncc1Br

> <IC50_uM>
0.831

> <pIC50>
6.080398976

> <Activity>
1

$$$$

  SciTegic10102310092D

 15 15  0  0  0  0            999 V2000
    2.6003   -1.4977    0.0000 O   0  0
    1.2990   -0.7500    0.0000 C   0  0
    1.2990    0.7500    0.0000 C   0  0
    0.0000    1.5000    0.0000 C   0  0
   -1.2990    0.7500    0.0000 C   0  0
   -1.2990   -0.7500    0.0000 C   0  0
    0.0000   -1.5000    0.0000 C   0  0
   -0.0031   -3.0008    0.0000 O   0  0
   -1.3032   -3.7490    0.0000 C   0  0
   -0.0031    3.0008    0.0000 C   0  0
   -1.3039    3.7494    0.0000 C   0  0
   -1.3070    5.2502    0.0000 C   0  0
   -0.0093    6.0025    0.0000 O   0  0
   -2.6071    5.9984    0.0000 O   0  0
    3.8983   -0.7459    0.0000 C   0  0
  1  2  1  0
  2  3  2  0
  3  4  1  0
  4  5  2  0
  5  6  1  0
  6  7  2  0
  7  2  1  0
  7  8  1  0
  8  9  1  0
  4 10  1  0
 10 11  2  0
 11 12  1  0
 12 13  1  0
 12 14  2  0
  1 15  1  0
M  END
> <Smiles>
O(c1cc(ccc1OC)\C=C\C(O)=O)C

> <IC50_uM>
0.831763771

> <pIC50>
6.08

> <Activity>
1

$$$$

  SciTegic10102310092D

 12 12  0  0  0  0            999 V2000
    2.5973   -1.5031    0.0000 C   0  0
    1.2990   -0.7500    0.0000 C   0  0  3  0  0  0
    1.2990    0.7500    0.0000 S   0  0
    0.0000    1.5000    0.0000 S   0  0
   -1.2990    0.7500    0.0000 C   0  0  3  0  0  0
   -2.6003    1.4977    0.0000 C   0  0
   -2.6030    2.9977    0.0000 O   0  0
   -3.8983    0.7459    0.0000 O   0  0
   -1.2990   -0.7500    0.0000 C   0  0
    0.0000   -1.5000    0.0000 C   0  0
    3.8976   -0.7553    0.0000 O   0  0
    2.5951   -3.0031    0.0000 O   0  0
  2  1  1  4
  2  3  1  0
  3  4  1  0
  4  5  1  0
  5  6  1  4
  6  7  1  0
  6  8  2  0
  5  9  1  0
  9 10  1  0
 10  2  1  0
  1 11  1  0
  1 12  2  0
M  END
> <Smiles>
C(C1SSC(C(O)=O)CC1)(O)=O

> <IC50_uM>
0.831763771

> <pIC50>
6.08

> <Activity>
1

$$$$

  SciTegic10102310092D

 12 13  0  0  0  0            999 V2000
    2.0727    1.0004    0.0000 C   0  0
    0.9488    0.0000    0.0000 C   0  0  3  0  0  0
    1.8975   -0.8028    0.0000 C   0  0  3  0  0  0
    1.6421    0.6933    0.0000 C   0  0
    0.0000    0.6568    0.0000 C   0  0  3  0  0  0
   -0.6568   -0.6386    0.0000 C   0  0
   -1.8063   -1.3319    0.0000 C   0  0
   -1.0947    1.4779    0.0000 N   0  0
   -1.8778    2.7573    0.0000 C   0  0
   -0.8393    0.0000    0.0000 C   0  0  3  0  0  0
    2.6413   -2.1054    0.0000 O   0  0
    3.4958    0.5263    0.0000 O   0  0
  2  1  1  4
  2  3  1  0
  3  4  1  0
  5  4  1  4
  5  6  1  0
  6  7  1  0
  5  8  1  0
  8  9  1  0
  8 10  1  0
 10  2  1  0
 10  7  1  4
  3 11  1  4
  1 12  1  0
M  END
> <Smiles>
C(C1C(CC(CC2)N(C)C12)O)O

> <IC50_uM>
0.831763771

> <pIC50>
6.08

> <Activity>
1

$$$$

  SciTegic10102310092D

 13 13  0  0  0  0            999 V2000
   -3.3407   -0.4229    0.0000 P   0  0
   -3.3379    1.0771    0.0000 O   0  0
   -4.6420   -1.1706    0.0000 O   0  0
   -5.9406   -0.4182    0.0000 C   0  0
   -7.2413   -1.1654    0.0000 C   0  0
   -4.6632    0.3463    0.0000 O   0  0
   -4.6592    1.8472    0.0000 C   0  0
   -5.9558    2.6014    0.0000 C   0  0
   -2.0420   -1.1753    0.0000 C   0  0
   -0.7500   -0.4330    0.0000 C   0  0
    0.7500   -0.4330    0.0000 C   0  0
    0.0000    0.8660    0.0000 C   0  0
   -2.0448   -2.6753    0.0000 O   0  0
  1  2  2  0
  1  3  1  0
  3  4  1  0
  4  5  1  0
  1  6  1  0
  6  7  1  0
  7  8  1  0
  1  9  1  0
  9 10  1  0
 10 11  1  0
 11 12  1  0
 12 10  1  0
  9 13  2  0
M  END
> <Smiles>
P(=O)(OCC)(OCC)C(C1CC1)=O

> <IC50_uM>
0.831763771

> <pIC50>
6.08

> <Activity>
1

$$$$

  SciTegic10102310092D

 15 17  0  0  0  0            999 V2000
    1.6317   -2.2458    0.0000 O   0  0
    0.7500   -1.0323    0.0000 C   0  0
    1.2135    0.3943    0.0000 O   0  0
    0.0000    1.2760    0.0000 C   0  0
    0.0000    2.7760    0.0000 O   0  0
   -1.2135    0.3943    0.0000 C   0  0  3  0  0  0
   -2.7115    0.3949    0.0000 C   0  0
   -3.1750   -1.0317    0.0000 C   0  0  3  0  0  0
   -4.3873   -1.9116    0.0000 C   0  0
   -3.9238   -3.3382    0.0000 O   0  0
   -2.4238   -3.3382    0.0000 C   0  0
   -1.5419   -4.5515    0.0000 O   0  0
   -5.8138   -1.4478    0.0000 O   0  0
   -1.9615   -1.9133    0.0000 C   0  0  3  0  0  0
   -0.7500   -1.0323    0.0000 C   0  0  3  0  0  0
  1  2  2  0
  2  3  1  0
  3  4  1  0
  4  5  2  0
  4  6  1  0
  6  7  1  4
  8  7  1  4
  8  9  1  0
  9 10  1  0
 10 11  1  0
 11 12  2  0
  9 13  2  0
  8 14  1  0
 14 11  1  4
  6 15  1  0
 15  2  1  4
 15 14  1  0
M  END
> <Smiles>
O=C1OC(=O)C(CC(C(OC2=O)=O)C23)C13

> <IC50_uM>
0.831763771

> <pIC50>
6.08

> <Activity>
1

$$$$

  SciTegic10102310092D

 15 16  0  0  0  0            999 V2000
   -0.6890   -4.0818    0.0000 C   0  0
    0.3114   -2.9665    0.0000 C   0  0
    1.8032   -3.1233    0.0000 O   0  0
    2.4133   -1.7530    0.0000 N   0  0
    1.2990   -0.7500    0.0000 C   0  0
    1.2990    0.7500    0.0000 C   0  0
    0.0000    1.5000    0.0000 C   0  0
   -0.0031    3.0008    0.0000 N   0  3
    1.2946    3.7531    0.0000 O   0  5
   -1.3032    3.7490    0.0000 O   0  0
   -1.2990    0.7500    0.0000 C   0  0
   -1.2990   -0.7500    0.0000 C   0  0
    0.0000   -1.5000    0.0000 C   0  0
   -2.1567   -3.7722    0.0000 O   0  0
   -0.2237   -5.5078    0.0000 O   0  0
  1  2  1  0
  2  3  1  0
  3  4  1  0
  4  5  2  0
  5  6  1  0
  6  7  2  0
  7  8  1  0
  8  9  1  0
  8 10  2  0
  7 11  1  0
 11 12  2  0
  5 13  1  0
 13  2  2  0
 13 12  1  0
  1 14  1  0
  1 15  2  0
M  CHG  2   8   1   9  -1
M  END
> <Smiles>
C(c1onc(cc([N+]([O-])=O)cc2)c12)(O)=O

> <IC50_uM>
0.831763771

> <pIC50>
6.08

> <Activity>
1

$$$$

  SciTegic10102310092D

 15 15  0  0  0  0            999 V2000
    2.5973   -1.5031    0.0000 O   0  0
    1.2990   -0.7500    0.0000 C   0  0
    1.2990    0.7500    0.0000 C   0  0
    0.0000    1.5000    0.0000 C   0  0
   -1.2990    0.7500    0.0000 C   0  0
   -2.6003    1.4977    0.0000 N   0  0
   -3.8990    0.7455    0.0000 C   0  0
   -5.1996    1.4928    0.0000 O   0  0
   -3.8964   -0.7545    0.0000 C   0  0
   -1.2990   -0.7500    0.0000 C   0  0
    0.0000   -1.5000    0.0000 C   0  0
    2.5951   -3.0039    0.0000 C   0  0
    3.8926   -3.7566    0.0000 C   0  0
    1.2948   -3.7516    0.0000 C   0  0
    2.5923   -4.5039    0.0000 C   0  0
  1  2  1  0
  2  3  2  0
  3  4  1  0
  4  5  2  0
  5  6  1  0
  6  7  1  0
  7  8  2  0
  7  9  1  0
  5 10  1  0
 10 11  2  0
 11  2  1  0
  1 12  1  0
 12 13  1  0
 12 14  1  0
 12 15  1  0
M  END
> <Smiles>
O(c1ccc(NC(=O)C)cc1)C(C)(C)C

> <IC50_uM>
0.831763771

> <pIC50>
6.08

> <Activity>
1

$$$$

  SciTegic10102310092D

 10 11  0  0  0  0            999 V2000
   -0.6923   -4.0811    0.0000 N   0  0
    0.3114   -2.9665    0.0000 C   0  0
    1.8032   -3.1233    0.0000 S   0  0
    2.4133   -1.7530    0.0000 N   0  0
    1.2990   -0.7500    0.0000 C   0  0
    1.2990    0.7500    0.0000 N   0  0
    0.0000    1.5000    0.0000 C   0  0
   -1.2990    0.7500    0.0000 C   0  0
   -1.2990   -0.7500    0.0000 C   0  0
    0.0000   -1.5000    0.0000 C   0  0
  1  2  1  0
  2  3  1  0
  3  4  1  0
  4  5  2  0
  5  6  1  0
  6  7  2  0
  7  8  1  0
  8  9  2  0
  5 10  1  0
 10  2  2  0
 10  9  1  0
M  END
> <Smiles>
Nc1snc(nccc2)c12

> <IC50_uM>
0.831763771

> <pIC50>
6.08

> <Activity>
1

$$$$

  SciTegic10102310092D

 15 16  0  0  0  0            999 V2000
    3.1476   -0.7184    0.0000 O   0  0
    1.6852   -0.3846    0.0000 C   0  0
    1.3514    1.0778    0.0000 C   0  0
    0.0000    1.7286    0.0000 C   0  0
   -1.3515    1.0777    0.0000 C   0  0
   -1.6852   -0.3847    0.0000 C   0  0
   -0.7500   -1.5574    0.0000 C   0  0
   -1.5000   -2.8577    0.0000 C   0  0
   -0.7500   -4.1567    0.0000 C   0  0
   -1.5000   -5.4558    0.0000 O   0  0
    0.7500   -4.1567    0.0000 O   0  0
    1.5000   -2.8577    0.0000 C   0  0
    3.0000   -2.8580    0.0000 O   0  0
    0.7500   -1.5574    0.0000 C   0  0
    2.5242    2.0130    0.0000 O   0  0
  1  2  2  0
  2  3  1  0
  3  4  2  0
  4  5  1  0
  5  6  2  0
  6  7  1  0
  7  8  1  0
  8  9  1  0
  9 10  2  0
  9 11  1  0
 11 12  1  0
 12 13  2  0
  7 14  2  0
 14  2  1  0
 14 12  1  0
  3 15  1  0
M  END
> <Smiles>
O=C1C(=CC=CC(CC(=O)OC2=O)=C12)O

> <IC50_uM>
0.831763771

> <pIC50>
6.08

> <Activity>
1

$$$$

  SciTegic10102310092D

 15 16  0  0  0  0            999 V2000
    2.6003   -1.4977    0.0000 C   0  0
    1.2990   -0.7500    0.0000 C   0  0  3  0  0  0
    1.2990    0.7500    0.0000 C   0  0
    0.0000    1.5000    0.0000 C   0  0
   -1.2990    0.7500    0.0000 C   0  0  3  0  0  0
   -2.5981    1.5000    0.0000 C   0  0
   -1.2990   -0.7500    0.0000 C   0  0  3  0  0  0
   -2.4133   -1.7530    0.0000 C   0  0
   -1.8032   -3.1233    0.0000 O   0  0
   -0.3114   -2.9665    0.0000 C   0  0
    0.6924   -4.0811    0.0000 O   0  0
   -3.8805   -1.4410    0.0000 O   0  0
    0.0000   -1.5000    0.0000 C   0  0  3  0  0  0
    2.6030   -2.9977    0.0000 O   0  0
    3.8983   -0.7459    0.0000 O   0  0
  2  1  1  4
  2  3  1  0
  3  4  2  0
  4  5  1  0
  5  6  1  4
  5  7  1  0
  7  8  1  4
  8  9  1  0
  9 10  1  0
 10 11  2  0
  8 12  2  0
  7 13  1  0
 13  2  1  0
 13 10  1  4
  1 14  1  0
  1 15  2  0
M  END
> <Smiles>
C(C1C=CC(C)C(C(OC2=O)=O)C12)(O)=O

> <IC50_uM>
0.831763771

> <pIC50>
6.08

> <Activity>
1

$$$$

  SciTegic10102310092D

 15 15  0  0  0  0            999 V2000
    2.5973   -1.5031    0.0000 C   0  0  3  0  0  0
    1.2990   -0.7500    0.0000 C   0  0
    1.2990    0.7500    0.0000 C   0  0
    0.0000    1.5000    0.0000 C   0  0
   -1.2990    0.7500    0.0000 C   0  0
   -2.6003    1.4977    0.0000 C   0  0
   -3.8990    0.7455    0.0000 C   0  0
   -5.1996    1.4928    0.0000 C   0  0
   -3.8964   -0.7545    0.0000 C   0  0
   -1.2990   -0.7500    0.0000 C   0  0
    0.0000   -1.5000    0.0000 C   0  0
    3.8976   -0.7553    0.0000 C   0  0
    2.5951   -3.0039    0.0000 C   0  0
    1.2948   -3.7516    0.0000 O   0  0
    3.8926   -3.7566    0.0000 O   0  0
  1  2  1  0
  2  3  2  0
  3  4  1  0
  4  5  2  0
  5  6  1  0
  6  7  1  0
  7  8  1  0
  7  9  1  0
  5 10  1  0
 10 11  2  0
 11  2  1  0
  1 12  1  4
  1 13  1  0
 13 14  1  0
 13 15  2  0
M  END
> <Smiles>
C(c1ccc(CC(C)C)cc1)(C)C(O)=O

> <IC50_uM>
0.831763771

> <pIC50>
6.08

> <Activity>
1

$$$$

  SciTegic10102310092D

 15 16  0  0  0  0            999 V2000
    2.6003   -1.4977    0.0000 C   0  0
    1.2990   -0.7500    0.0000 N   0  0
    1.2990    0.7500    0.0000 O   0  0
    0.0000    1.5000    0.0000 C   0  0
   -1.2990    0.7500    0.0000 C   0  0
   -1.2990   -0.7500    0.0000 C   0  0
    0.0000   -1.5000    0.0000 C   0  0  3  0  0  0
    0.0000   -3.0008    0.0000 C   0  0
   -1.2978   -3.7529    0.0000 C   0  0
   -1.2955   -5.2529    0.0000 C   0  0
    0.0048   -6.0009    0.0000 C   0  0
    1.3026   -5.2488    0.0000 C   0  0
    1.3002   -3.7488    0.0000 C   0  0
    3.8990   -0.7455    0.0000 C   0  0
    5.1996   -1.4928    0.0000 O   0  0
  1  2  1  0
  2  3  1  0
  3  4  1  0
  4  5  1  0
  5  6  1  0
  6  7  1  0
  7  2  1  0
  7  8  1  4
  8  9  2  0
  9 10  1  0
 10 11  2  0
 11 12  1  0
 12 13  2  0
 13  8  1  0
  1 14  1  0
 14 15  1  0
M  END
> <Smiles>
C(N1OCCCC1c2ccccc2)CO

> <IC50_uM>
0.831763771

> <pIC50>
6.08

> <Activity>
1

$$$$

  SciTegic10102310092D

 15 17  0  0  0  0            999 V2000
   -0.6522   -1.4871    0.0000 N   0  0
   -0.8987    0.0000    0.0000 C   0  0  3  0  0  0
   -2.0541   -1.3755    0.0000 C   0  0
   -0.6052   -0.9721    0.0000 N   0  0  3  0  0  0
   -0.6052    0.5686    0.0000 C   0  0
    0.4035    1.7790    0.0000 N   0  0  3  0  0  0
    1.7790    1.2105    0.0000 C   0  0
    1.7607   -0.2751    0.0000 N   0  0  3  0  0  0
    0.3852   -0.6052    0.0000 C   0  0
   -0.8987    1.3205    0.0000 C   0  0
    0.7703   -1.5223    0.0000 C   0  0
   -1.8112   -2.4405    0.0000 C   0  0
   -1.5659   -3.9212    0.0000 C   0  0
   -2.7243   -4.8741    0.0000 C   0  0
   -0.1616   -4.4484    0.0000 C   0  0
  2  1  1  4
  2  3  1  0
  4  3  1  4
  4  5  1  0
  6  5  1  4
  6  7  1  0
  8  7  1  4
  8  9  1  0
  9  2  1  0
  6 10  1  0
 10  2  1  0
  4 11  1  0
 11  8  1  0
  1 12  1  0
 12 13  1  0
 13 14  1  0
 13 15  1  0
M  END
> <Smiles>
N(C12CN(CN(CN3C1)C2)C3)CC(C)C

> <IC50_uM>
0.831763771

> <pIC50>
6.08

> <Activity>
1

$$$$

  SciTegic10102310092D

 13 12  0  0  0  0            999 V2000
    3.9000    0.7500    0.0000 C   0  0  3  0  0  0
    3.9031    2.2508    0.0000 C   0  0
    5.2032    2.9990    0.0000 O   0  0
    2.6000    0.0000    0.0000 C   0  0
    1.3000    0.7500    0.0000 C   0  0
    0.0007    0.0004    0.0000 C   0  0
    5.2000    0.0000    0.0000 C   0  0
    6.5000    0.7500    0.0000 C   0  0
    7.7999    1.5000    0.0000 C   0  0
    9.0999    0.7500    0.0000 C   0  0
   10.3999    1.5000    0.0000 N   0  0
   11.6992    0.7504    0.0000 C   0  0
   10.3999    3.0000    0.0000 C   0  0
  1  2  1  4
  2  3  1  0
  1  4  1  0
  4  5  1  0
  5  6  2  0
  1  7  1  0
  7  8  2  0
  8  9  2  0
  9 10  1  0
 10 11  1  0
 11 12  1  0
 11 13  1  0
M  END
> <Smiles>
C(CO)(CC=C)C=C=CCN(C)C

> <IC50_uM>
0.831763771

> <pIC50>
6.08

> <Activity>
1

$$$$

  SciTegic10102310092D

 13 14  0  0  0  0            999 V2000
   -0.6913   -4.0797    0.0000 C   0  0
    0.3114   -2.9665    0.0000 C   0  0
    1.8032   -3.1233    0.0000 N   0  0
    2.4133   -1.7530    0.0000 N   0  0
    1.2990   -0.7500    0.0000 C   0  0
    1.2990    0.7500    0.0000 N   0  0
    0.0000    1.5000    0.0000 C   0  0
    0.0000    3.0000    0.0000 S   0  0
   -1.2990    0.7500    0.0000 S   0  0
   -1.2990   -0.7500    0.0000 C   0  0
   -2.5981   -1.5000    0.0000 N   0  0
    0.0000   -1.5000    0.0000 C   0  0
   -1.6952   -5.1942    0.0000 N   0  0
  1  2  1  0
  2  3  2  0
  3  4  1  0
  4  5  1  0
  5  6  1  0
  6  7  1  0
  7  8  2  0
  7  9  1  0
  9 10  1  0
 10 11  2  0
  5 12  2  0
 12  2  1  0
 12 10  1  0
  1 13  3  0
M  END
> <Smiles>
C(c1n[nH]c(NC(=S)SC2=N)c12)#N

> <IC50_uM>
0.831763771

> <pIC50>
6.08

> <Activity>
1

$$$$

  SciTegic10102310092D

 15 16  0  0  0  0            999 V2000
    1.2990   -0.7500    0.0000 N   0  0
    1.2990    0.7500    0.0000 C   0  0
    2.4133    1.7530    0.0000 N   0  0
    1.8032    3.1233    0.0000 C   0  0
    0.3114    2.9665    0.0000 N   0  0
   -0.6890    4.0818    0.0000 C   0  0
   -0.2235    5.5086    0.0000 C   0  0  3  0  0  0
    1.2442    5.8182    0.0000 O   0  0
   -1.2256    6.6258    0.0000 C   0  0
   -0.7604    8.0518    0.0000 O   0  0
    0.0000    1.5000    0.0000 C   0  0
   -1.2990    0.7500    0.0000 C   0  0
   -1.2990   -0.7500    0.0000 N   0  0
    0.0000   -1.5000    0.0000 C   0  0
    0.0000   -3.0000    0.0000 N   0  0
  1  2  2  0
  2  3  1  0
  3  4  2  0
  4  5  1  0
  5  6  1  0
  6  7  1  0
  7  8  1  4
  7  9  1  0
  9 10  1  0
  2 11  1  0
 11  5  1  0
 11 12  2  0
 12 13  1  0
 13 14  2  0
 14  1  1  0
 14 15  1  0
M  END
> <Smiles>
n1c(ncn2CC(O)CO)c2cnc1N

> <IC50_uM>
0.831763771

> <pIC50>
6.08

> <Activity>
1

$$$$

  SciTegic10102310092D

 15 16  0  0  0  0            999 V2000
    1.2990   -0.7500    0.0000 C   0  0
    1.2990    0.7500    0.0000 C   0  0
    2.6003    1.4978    0.0000 O   0  0
    3.8983    0.7459    0.0000 C   0  0
    0.0000    1.5000    0.0000 C   0  0
    0.0000    3.0008    0.0000 C   0  0  3  0  0  0
    1.2121    3.8625    0.0000 C   0  0
    0.7463    5.2884    0.0000 C   0  0
   -0.7537    5.2860    0.0000 C   0  0
   -1.6373    6.4981    0.0000 O   0  0
   -1.2149    3.8587    0.0000 O   0  0
   -1.2990    0.7500    0.0000 C   0  0
   -1.2990   -0.7500    0.0000 C   0  0
   -2.5981   -1.5000    0.0000 C   0  0
    0.0000   -1.5000    0.0000 C   0  0
  1  2  2  0
  2  3  1  0
  3  4  1  0
  2  5  1  0
  6  5  1  4
  6  7  1  0
  7  8  1  0
  8  9  1  0
  9 10  2  0
  9 11  1  0
 11  6  1  0
  5 12  2  0
 12 13  1  0
 13 14  1  0
 13 15  2  0
 15  1  1  0
M  END
> <Smiles>
c1c(OC)c(C2CCC(=O)O2)cc(C)c1

> <IC50_uM>
0.831763771

> <pIC50>
6.08

> <Activity>
1

$$$$

  SciTegic10102310092D

 35 36  0  0  0  0            999 V2000
    1.2990   -0.7500    0.0000 C   0  0
    2.5973   -1.5031    0.0000 C   0  0
    3.8976   -0.7553    0.0000 O   0  0
    2.5951   -3.0031    0.0000 O   0  0
    1.2990    0.7500    0.0000 C   0  0
    2.5972    1.5031    0.0000 O   0  0
    2.5951    3.0031    0.0000 C   0  0
    0.0000    1.5000    0.0000 C   0  0
   -0.0044    3.0009    0.0000 C   0  0
    1.2918    3.7573    0.0000 C   0  0
    1.2858    5.2582    0.0000 C   0  0
    2.5820    6.0146    0.0000 C   0  0
    2.5759    7.5155    0.0000 C   0  0
    3.8721    8.2719    0.0000 C   0  0
    3.8661    9.7728    0.0000 C   0  0
    5.1623   10.5293    0.0000 C   0  0
    5.1562   12.0301    0.0000 C   0  0
    6.4524   12.7866    0.0000 C   0  0
    6.4464   14.2865    0.0000 C   0  0
   -1.3060    3.7482    0.0000 C   0  0
   -2.6034    2.9951    0.0000 C   0  0
   -2.6030    1.4943    0.0000 O   0  0
   -3.9013    0.7431    0.0000 C   0  0
   -3.9043    3.7419    0.0000 C   0  0
   -5.2037    2.9911    0.0000 C   0  0
   -5.2027    1.4911    0.0000 O   0  0
   -6.5035    3.7398    0.0000 O   0  0
   -3.9079    5.2419    0.0000 C   0  0
   -2.6107    5.9951    0.0000 C   0  0
   -2.6143    7.4951    0.0000 Br  0  0
   -1.3098    5.2482    0.0000 C   0  0
   -1.2990    0.7500    0.0000 C   0  0
   -1.2990   -0.7500    0.0000 C   0  0
   -2.5981   -1.5000    0.0000 Br  0  0
    0.0000   -1.5000    0.0000 C   0  0
  1  2  1  0
  2  3  1  0
  2  4  2  0
  1  5  2  0
  5  6  1  0
  6  7  1  0
  5  8  1  0
  8  9  1  0
  9 10  2  0
 10 11  1  0
 11 12  1  0
 12 13  1  0
 13 14  1  0
 14 15  1  0
 15 16  1  0
 16 17  1  0
 17 18  1  0
 18 19  1  0
  9 20  1  0
 20 21  2  0
 21 22  1  0
 22 23  1  0
 21 24  1  0
 24 25  1  0
 25 26  1  0
 25 27  2  0
 24 28  2  0
 28 29  1  0
 29 30  1  0
 29 31  2  0
 31 20  1  0
  8 32  2  0
 32 33  1  0
 33 34  1  0
 33 35  2  0
 35  1  1  0
M  END
> <Smiles>
c1(C(O)=O)c(OC)c(C(=CCCCCCCCCC)c2c(OC)c(C(O)=O)cc(Br)c2)cc(Br)c1

> <IC50_uM>
0.831763771

> <pIC50>
6.08

> <Activity>
1

$$$$

  SciTegic10102310092D

 15 17  0  0  0  0            999 V2000
    1.2990   -0.7500    0.0000 C   0  0
    1.2990    0.7500    0.0000 C   0  0
    2.4133    1.7530    0.0000 O   0  0
    1.8032    3.1233    0.0000 C   0  0  3  0  0  0
    0.3114    2.9665    0.0000 C   0  0  3  0  0  0
   -0.2985    4.3347    0.0000 C   0  0
    0.8162    5.3384    0.0000 C   0  0
    2.1153    4.5884    0.0000 O   0  0
    0.0000    1.5000    0.0000 C   0  0
   -1.2990    0.7500    0.0000 C   0  0
   -2.5981    1.5000    0.0000 O   0  0
   -1.2990   -0.7500    0.0000 C   0  0
    0.0000   -1.5000    0.0000 C   0  0
    0.0031   -3.0008    0.0000 O   0  0
    1.3032   -3.7490    0.0000 C   0  0
  1  2  2  0
  2  3  1  0
  4  3  1  4
  4  5  1  0
  5  6  1  4
  6  7  1  0
  7  8  1  0
  8  4  1  0
  2  9  1  0
  9  5  1  0
  9 10  2  0
 10 11  1  0
 10 12  1  0
 12 13  2  0
 13  1  1  0
 13 14  1  0
 14 15  1  0
M  END
> <Smiles>
c1c(OC2C3CCO2)c3c(O)cc1OC

> <IC50_uM>
0.831763771

> <pIC50>
6.08

> <Activity>
1

$$$$

  SciTegic10102310092D

 15 15  0  0  0  0            999 V2000
    1.2990   -0.7500    0.0000 C   0  0
    2.5973   -1.5031    0.0000 N   0  0
    2.5951   -3.0039    0.0000 C   0  0
    3.8933   -3.7570    0.0000 N   0  0
    3.8912   -5.2570    0.0000 C   0  0
    5.1937   -3.0093    0.0000 C   0  0
    1.2990    0.7500    0.0000 N   0  0
    0.0000    1.5000    0.0000 C   0  0
    0.0000    3.0000    0.0000 O   0  0
   -1.2990    0.7500    0.0000 N   0  0
   -2.6003    1.4977    0.0000 C   0  0
   -3.8990    0.7455    0.0000 C   0  0
   -5.1996    1.4928    0.0000 O   0  0
   -1.2990   -0.7500    0.0000 C   0  0
    0.0000   -1.5000    0.0000 C   0  0
  1  2  1  0
  2  3  2  0
  3  4  1  0
  4  5  1  0
  4  6  1  0
  1  7  2  0
  7  8  1  0
  8  9  2  0
  8 10  1  0
 10 11  1  0
 11 12  1  0
 12 13  1  0
 10 14  1  0
 14 15  2  0
 15  1  1  0
M  END
> <Smiles>
C1(\N=C\N(C)C)=NC(=O)N(CCO)C=C1

> <IC50_uM>
0.831763771

> <pIC50>
6.08

> <Activity>
1

$$$$

  SciTegic10102310092D

 15 16  0  0  0  0            999 V2000
    2.4133   -1.7530    0.0000 N   0  0
    1.2990   -0.7500    0.0000 C   0  0
    1.2990    0.7500    0.0000 N   0  0
    2.5972    1.5031    0.0000 C   0  0
    2.5951    3.0039    0.0000 C   0  0
    1.2948    3.7517    0.0000 O   0  0
    3.8926    3.7566    0.0000 O   0  0
    0.0000    1.5000    0.0000 C   0  0
    0.0000    3.0000    0.0000 O   0  0
   -1.2990    0.7500    0.0000 N   0  0
   -1.2990   -0.7500    0.0000 C   0  0
   -2.5981   -1.5000    0.0000 O   0  0
    0.0000   -1.5000    0.0000 C   0  0
    0.3114   -2.9665    0.0000 N   0  0
    1.8032   -3.1233    0.0000 C   0  0
  1  2  1  0
  2  3  1  0
  3  4  1  0
  4  5  1  0
  5  6  1  0
  5  7  2  0
  3  8  1  0
  8  9  2  0
  8 10  1  0
 10 11  1  0
 11 12  2  0
  2 13  2  0
 13 11  1  0
 13 14  1  0
 14 15  1  0
 15  1  2  0
M  END
> <Smiles>
n1c(N(CC(O)=O)C(=O)NC2=O)c2[nH]c1

> <IC50_uM>
0.831763771

> <pIC50>
6.08

> <Activity>
1

$$$$

  SciTegic10102310092D

 15 15  0  0  0  0            999 V2000
    1.2990   -0.7500    0.0000 C   0  0
    1.2990    0.7500    0.0000 C   0  0
    2.5981    1.5000    0.0000 C   0  0
    0.0000    1.5000    0.0000 C   0  0
   -1.2990    0.7500    0.0000 C   0  0
   -1.2990   -0.7500    0.0000 C   0  0
   -2.5972   -1.5031    0.0000 C   0  0
   -2.5951   -3.0039    0.0000 C   0  0
   -3.8933   -3.7570    0.0000 C   0  0
   -5.1937   -3.0093    0.0000 O   0  0
   -3.8912   -5.2570    0.0000 O   0  0
   -1.2925   -3.7494    0.0000 C   0  0
   -1.2873   -5.2494    0.0000 O   0  0
    0.0042   -2.9953    0.0000 O   0  0
    0.0000   -1.5000    0.0000 C   0  0
  1  2  2  0
  2  3  1  0
  2  4  1  0
  4  5  2  0
  5  6  1  0
  6  7  1  0
  7  8  2  0
  8  9  1  0
  9 10  1  0
  9 11  2  0
  8 12  1  0
 12 13  1  0
 12 14  2  0
  6 15  2  0
 15  1  1  0
M  END
> <Smiles>
c1c(C)ccc(C=C(C(O)=O)C(O)=O)c1

> <IC50_uM>
0.831763771

> <pIC50>
6.08

> <Activity>
1

$$$$

  SciTegic10102310092D

 16 16  0  0  0  0            999 V2000
    1.2990   -0.7500    0.0000 C   0  0
    1.2990    0.7500    0.0000 C   0  0
    2.5972    1.5031    0.0000 C   0  0
    2.5951    3.0039    0.0000 C   0  0
    1.2948    3.7517    0.0000 C   0  0
    3.8933    3.7570    0.0000 C   0  0
    3.8912    5.2578    0.0000 C   0  0
    5.1894    6.0109    0.0000 C   0  0
    6.4868    6.7636    0.0000 N   0  0
    2.5901    6.0060    0.0000 C   0  0
    1.2897    6.7537    0.0000 N   0  0
    0.0000    1.5000    0.0000 C   0  0
   -1.2990    0.7500    0.0000 C   0  0
   -1.2990   -0.7500    0.0000 C   0  0
   -2.5981   -1.5000    0.0000 C   0  0
    0.0000   -1.5000    0.0000 C   0  0
  1  2  2  0
  2  3  1  0
  3  4  2  0
  4  5  1  0
  4  6  1  0
  6  7  2  0
  7  8  1  0
  8  9  3  0
  7 10  1  0
 10 11  3  0
  2 12  1  0
 12 13  2  0
 13 14  1  0
 14 15  1  0
 14 16  2  0
 16  1  1  0
M  END
> <Smiles>
c1c(\C=C(/C)\C=C(C#N)C#N)ccc(C)c1

> <IC50_uM>
0.831763771

> <pIC50>
6.08

> <Activity>
1

$$$$

  SciTegic10102310092D

 14 15  0  0  0  0            999 V2000
    1.2990   -0.7500    0.0000 C   0  0
    1.2990    0.7500    0.0000 C   0  0
    0.0000    1.5000    0.0000 C   0  0
   -1.2990    0.7500    0.0000 C   0  0
   -1.2990   -0.7500    0.0000 C   0  0
    0.0000   -1.5000    0.0000 C   0  0
    2.5981    1.5000    0.0000 N   0  0
    2.5981    3.0000    0.0000 C   0  0
    3.8971    0.7500    0.0000 C   0  0
    5.1961    1.5000    0.0000 O   0  0
    3.8971   -0.7500    0.0000 C   0  0  3  0  0  0
    5.1781    0.0305    0.0000 C   0  0
    3.8619   -2.2496    0.0000 O   0  0
    2.5981   -1.5000    0.0000 S   0  0
  1  2  2  0
  2  3  1  0
  3  4  2  0
  4  5  1  0
  5  6  2  0
  6  1  1  0
  2  7  1  0
  7  8  1  0
  7  9  1  0
  9 10  2  0
  9 11  1  0
 11 12  1  4
 11 13  1  0
 11 14  1  0
 14  1  1  0
M  END
> <Smiles>
c12c(cccc1)N(C)C(=O)C(C)(O)S2

> <IC50_uM>
0.831763771

> <pIC50>
6.08

> <Activity>
1

$$$$

  SciTegic10102310092D

 15 16  0  0  0  0            999 V2000
    1.4440   -1.4074    0.0000 C   0  0
    2.3559   -2.5861    0.0000 C   0  0
    3.8432   -2.3851    0.0000 O   0  0
    4.7612   -3.5714    0.0000 C   0  0
    1.7871   -3.9741    0.0000 O   0  0
    1.1881    0.0000    0.0000 C   0  0
    0.0000    0.5484    0.0000 C   0  0  3  0  0  0
   -1.5537    0.0000    0.0000 C   0  0
   -2.8309    0.7866    0.0000 O   0  0
   -1.3709   -1.4257    0.0000 O   0  0
    0.1097   -0.7860    0.0000 C   0  0  3  0  0  0
    0.3656    1.0236    0.0000 C   0  0
    0.0000    2.1386    0.0000 C   0  0  3  0  0  0
   -0.3262    3.5913    0.0000 C   0  0
   -0.6527    5.0553    0.0000 N   0  0
  1  2  1  0
  2  3  1  0
  3  4  1  0
  2  5  2  0
  1  6  2  0
  7  6  1  4
  7  8  1  0
  8  9  2  0
  8 10  1  0
 11 10  1  4
 11  1  1  0
 11 12  1  0
 12 13  1  0
 13  7  1  0
 13 14  1  4
 14 15  3  0
M  END
> <Smiles>
C1(C(OC)=O)=CC2C(=O)OC1CC2C#N

> <IC50_uM>
0.831763771

> <pIC50>
6.08

> <Activity>
1

$$$$

  SciTegic10102310092D

 15 19  0  0  0  0            999 V2000
   14.5587   11.4416    0.0000 C   0  0  3  0  0  0
   14.5587   13.0468    0.0000 C   0  0  3  0  0  0
   13.6814   13.9241    0.0000 C   0  0  3  0  0  0
   12.0762   13.9241    0.0000 C   0  0  3  0  0  0
   12.9535   13.0468    0.0000 C   0  0  3  0  0  0
   12.9535   11.4416    0.0000 C   0  0  3  0  0  0
   13.6814   12.3189    0.0000 C   0  0  3  0  0  0
   12.0762   12.3189    0.0000 C   0  0  3  0  0  0
   10.7079   11.7375    0.0000 C   0  0
   10.5226   10.2482    0.0000 O   0  0
    9.1413    9.6634    0.0000 C   0  0
    9.5111   12.6418    0.0000 O   0  0
   15.9272   13.6277    0.0000 C   0  0
   16.1115   15.1163    0.0000 O   0  0
   17.1245   12.7241    0.0000 O   0  0
  1  2  1  4
  3  2  1  4
  4  3  1  4
  5  4  1  4
  5  2  1  0
  6  5  1  4
  6  1  1  0
  7  3  1  4
  7  1  1  0
  7  8  1  0
  8  4  1  0
  8  6  1  0
  8  9  1  4
  9 10  1  0
 10 11  1  0
  9 12  2  0
  2 13  1  4
 13 14  1  0
 13 15  2  0
M  END
> <Smiles>
C12C3(C(C4C3C15)C2C45C(OC)=O)C(O)=O

> <IC50_uM>
0.831763771

> <pIC50>
6.08

> <Activity>
1

$$$$

  SciTegic10102310092D

 13 14  0  0  0  0            999 V2000
    4.0312   -5.2378    0.0000 N   0  0
    3.8933   -3.7570    0.0000 N   0  0
    2.5951   -3.0039    0.0000 C   0  0
    2.5973   -1.5031    0.0000 C   0  0
    1.2990   -0.7500    0.0000 C   0  0
    1.2990    0.7500    0.0000 C   0  0
    0.0000    1.5000    0.0000 C   0  0
   -1.2990    0.7500    0.0000 C   0  0
   -1.2990   -0.7500    0.0000 C   0  0
    0.0000   -1.5000    0.0000 C   0  0
    5.2447   -3.1359    0.0000 C   0  0
    6.2484   -4.2507    0.0000 N   0  0
    5.4984   -5.5497    0.0000 C   0  0
  1  2  1  0
  2  3  1  0
  3  4  1  0
  4  5  1  0
  5  6  2  0
  6  7  1  0
  7  8  2  0
  8  9  1  0
  5 10  1  0
 10  9  2  0
  2 11  1  0
 11 12  2  0
 12 13  1  0
 13  1  2  0
M  END
> <Smiles>
n1n(CCc(cccc2)c2)cnc1

> <IC50_uM>
0.831763771

> <pIC50>
6.08

> <Activity>
1

$$$$

  SciTegic10102310092D

 42 45  0  0  0  0            999 V2000
    1.2990   -0.7500    0.0000 C   0  0
    2.6003   -1.4977    0.0000 C   0  0
    2.6030   -2.9977    0.0000 O   0  0
    3.8983   -0.7459    0.0000 O   0  0
    1.2990    0.7500    0.0000 C   0  0
    0.0000    1.5000    0.0000 C   0  0
   -0.0031    3.0008    0.0000 C   0  0
   -1.3039    3.7494    0.0000 C   0  0
   -1.3092    5.2494    0.0000 C   0  0
   -2.6108    5.9949    0.0000 C   0  0
   -2.6130    7.4957    0.0000 C   0  0
   -3.9133    8.2435    0.0000 O   0  0
   -1.3154    8.2484    0.0000 O   0  0
   -3.9073    5.2404    0.0000 C   0  0
   -3.9021    3.7404    0.0000 C   0  0
   -5.1977    2.9828    0.0000 C   0  0
   -5.1903    1.4820    0.0000 C   0  0
   -6.4841    0.7230    0.0000 C   0  0
   -6.4738   -0.7770    0.0000 C   0  0
   -7.7699   -1.5337    0.0000 C   0  0
   -7.7621   -3.0337    0.0000 O   0  0
   -9.0730   -0.7909    0.0000 O   0  0
   -5.1696   -1.5180    0.0000 C   0  0
   -3.8757   -0.7590    0.0000 C   0  0
   -3.8861    0.7409    0.0000 C   0  0
   -5.1592   -3.0180    0.0000 O   0  0
   -2.6005    2.9949    0.0000 C   0  0
   -5.2089    5.9859    0.0000 O   0  0
    1.2953    3.7535    0.0000 C   0  0
    1.2948    5.2536    0.0000 C   0  0
    2.5936    6.0040    0.0000 C   0  0
    2.5899    7.5049    0.0000 C   0  0
    3.8873    8.2576    0.0000 O   0  0
    1.2895    8.2525    0.0000 O   0  0
    3.8929    5.2545    0.0000 C   0  0
    5.1916    6.0050    0.0000 O   0  0
    3.8935    3.7545    0.0000 C   0  0
    2.5947    3.0040    0.0000 C   0  0
   -1.2990    0.7500    0.0000 C   0  0
   -1.2990   -0.7500    0.0000 C   0  0
    0.0000   -1.5000    0.0000 C   0  0
    0.0000   -3.0000    0.0000 O   0  0
  1  2  1  0
  2  3  1  0
  2  4  2  0
  1  5  2  0
  5  6  1  0
  6  7  2  0
  7  8  1  0
  8  9  2  0
  9 10  1  0
 10 11  1  0
 11 12  1  0
 11 13  2  0
 10 14  2  0
 14 15  1  0
 15 16  1  0
 16 17  1  0
 17 18  2  0
 18 19  1  0
 19 20  1  0
 20 21  1  0
 20 22  2  0
 19 23  2  0
 23 24  1  0
 24 25  2  0
 25 17  1  0
 23 26  1  0
 15 27  2  0
 27  8  1  0
 14 28  1  0
  7 29  1  0
 29 30  2  0
 30 31  1  0
 31 32  1  0
 32 33  1  0
 32 34  2  0
 31 35  2  0
 35 36  1  0
 35 37  1  0
 37 38  2  0
 38 29  1  0
  6 39  1  0
 39 40  2  0
 40 41  1  0
 41  1  1  0
 41 42  2  0
M  END
> <Smiles>
C1(C(O)=O)=C\C(=C(\c2cc(C(O)=O)c(c(Cc3cc(C(O)=O)c(cc3)O)c2)O)/c4cc(C(O)=O)c(O)cc4)\C=CC1=O

> <IC50_uM>
0.831763771

> <pIC50>
6.08

> <Activity>
1

$$$$

  SciTegic10102310092D

 15 15  0  0  0  0            999 V2000
    1.2990   -0.7500    0.0000 C   0  0
    1.2990    0.7500    0.0000 C   0  0
    2.6003    1.4978    0.0000 C   0  0
    3.8990    0.7455    0.0000 O   0  0
    5.2003    1.4932    0.0000 C   0  0
    6.4983    0.7414    0.0000 C   0  0
    5.2029    2.9932    0.0000 C   0  0
    2.6029    2.9978    0.0000 O   0  0
    0.0000    1.5000    0.0000 C   0  0
   -0.0031    3.0008    0.0000 C   0  0
   -1.3039    3.7494    0.0000 N   0  0
   -1.3070    5.2494    0.0000 O   0  0
   -1.2990    0.7500    0.0000 N   0  0
   -1.2990   -0.7500    0.0000 C   0  0
    0.0000   -1.5000    0.0000 C   0  0
  1  2  2  0
  2  3  1  0
  3  4  1  0
  4  5  1  0
  5  6  1  0
  5  7  1  0
  3  8  2  0
  2  9  1  0
  9 10  1  0
 10 11  2  0
 11 12  1  0
  9 13  2  0
 13 14  1  0
 14 15  2  0
 15  1  1  0
M  END
> <Smiles>
c1c(C(OC(C)C)=O)c(\C=N\O)ncc1

> <IC50_uM>
0.831763771

> <pIC50>
6.08

> <Activity>
1

$$$$

  SciTegic10102310092D

 15 15  0  0  0  0            999 V2000
    1.2990   -0.7500    0.0000 C   0  0
    1.2990    0.7500    0.0000 C   0  0
    2.6003    1.4978    0.0000 C   0  0
    3.8990    0.7455    0.0000 C   0  0
    5.2003    1.4932    0.0000 O   0  0
    6.4990    0.7410    0.0000 C   0  0
    6.4964   -0.7590    0.0000 C   0  0
    7.7996    1.4883    0.0000 O   0  0
    0.0000    1.5000    0.0000 C   0  0
   -0.0031    3.0008    0.0000 C   0  0
   -1.3039    3.7494    0.0000 N   0  0
   -1.3070    5.2494    0.0000 O   0  0
   -1.2990    0.7500    0.0000 N   0  0
   -1.2990   -0.7500    0.0000 C   0  0
    0.0000   -1.5000    0.0000 C   0  0
  1  2  2  0
  2  3  1  0
  3  4  1  0
  4  5  1  0
  5  6  1  0
  6  7  1  0
  6  8  2  0
  2  9  1  0
  9 10  1  0
 10 11  2  0
 11 12  1  0
  9 13  2  0
 13 14  1  0
 14 15  2  0
 15  1  1  0
M  END
> <Smiles>
c1c(CCOC(C)=O)c(\C=N\O)ncc1

> <IC50_uM>
0.831763771

> <pIC50>
6.08

> <Activity>
1

$$$$

  SciTegic10102310092D

 15 15  0  0  0  0            999 V2000
    1.2990   -0.7500    0.0000 C   0  0
    1.2990    0.7500    0.0000 C   0  0
    2.6003    1.4978    0.0000 C   0  0
    3.8990    0.7455    0.0000 C   0  0
    5.2003    1.4932    0.0000 C   0  0
    6.4990    0.7410    0.0000 O   0  0
    7.7996    1.4883    0.0000 C   0  0
    5.2029    2.9932    0.0000 O   0  0
    0.0000    1.5000    0.0000 C   0  0
   -0.0031    3.0008    0.0000 C   0  0
   -1.3039    3.7494    0.0000 N   0  0
   -1.3070    5.2494    0.0000 O   0  0
   -1.2990    0.7500    0.0000 N   0  0
   -1.2990   -0.7500    0.0000 C   0  0
    0.0000   -1.5000    0.0000 C   0  0
  1  2  2  0
  2  3  1  0
  3  4  1  0
  4  5  1  0
  5  6  1  0
  6  7  1  0
  5  8  2  0
  2  9  1  0
  9 10  1  0
 10 11  2  0
 11 12  1  0
  9 13  2  0
 13 14  1  0
 14 15  2  0
 15  1  1  0
M  END
> <Smiles>
c1c(CCC(OC)=O)c(\C=N\O)ncc1

> <IC50_uM>
0.831763771

> <pIC50>
6.08

> <Activity>
1

$$$$

  SciTegic10102310092D

 15 16  0  0  0  0            999 V2000
    0.0000    0.0000    0.0000 C   0  0
   -0.7526    1.2945    0.0000 N   0  0
   -2.2578    1.2945    0.0000 C   0  0
   -3.0059    2.5947    0.0000 O   0  0
   -3.0105    0.0000    0.0000 C   0  0
   -3.7631   -1.2945    0.0000 C   0  0
   -3.0150   -2.5947    0.0000 O   0  0
   -5.2683   -1.2945    0.0000 N   0  0
   -6.0209    0.0000    0.0000 C   0  0
   -7.5209    0.0000    0.0000 O   0  0
   -5.2683    1.2945    0.0000 C   0  0
   -3.7631    1.2945    0.0000 C   0  0
   -2.2578   -1.2945    0.0000 C   0  0
   -0.7526   -1.2945    0.0000 C   0  0
    1.5000    0.0000    0.0000 O   0  0
  1  2  1  0
  2  3  1  0
  3  4  2  0
  3  5  1  0
  5  6  1  0
  6  7  2  0
  6  8  1  0
  8  9  1  0
  9 10  2  0
  9 11  1  0
 11 12  1  0
 12  5  1  0
  5 13  1  0
 13 14  1  0
 14  1  1  0
  1 15  2  0
M  END
> <Smiles>
C1(NC(=O)C2(C(=O)NC(=O)CC2)CC1)=O

> <IC50_uM>
0.831763771

> <pIC50>
6.08

> <Activity>
1

$$$$

  SciTegic10102310092D

 12 12  0  0  0  0            999 V2000
    0.7500   -1.0323    0.0000 C   0  0
    1.2135    0.3943    0.0000 C   0  0
    0.0000    1.2760    0.0000 C   0  0
   -0.0031    2.7742    0.0000 C   0  0
   -1.3040    3.5228    0.0000 C   0  0
   -1.3071    5.0236    0.0000 P   0  0
   -0.0094    5.7759    0.0000 O   0  0
   -1.3095    6.5236    0.0000 O   0  0
   -2.6072    5.7717    0.0000 O   0  0
    1.2946    3.5265    0.0000 O   0  0
   -1.2135    0.3943    0.0000 S   0  0
   -0.7500   -1.0323    0.0000 C   0  0
  1  2  1  0
  2  3  2  0
  3  4  1  0
  4  5  1  0
  5  6  1  0
  6  7  1  0
  6  8  1  0
  6  9  2  0
  4 10  2  0
  3 11  1  0
 11 12  1  0
 12  1  2  0
M  END
> <Smiles>
c1cc(C(CP(O)(O)=O)=O)sc1

> <IC50_uM>
0.831763771

> <pIC50>
6.08

> <Activity>
1

$$$$

  SciTegic10102310092D

 25 27  0  0  0  0            999 V2000
    3.9075   -3.7444    0.0000 C   0  0
    2.6060   -2.9986    0.0000 O   0  0
    2.6003   -1.4977    0.0000 C   0  0  3  0  0  0
    1.2990   -0.7500    0.0000 C   0  0
    1.2990    0.7500    0.0000 N   0  0
    0.0000    1.5000    0.0000 C   0  0
   -0.0031    3.0008    0.0000 N   0  0
   -1.3039    3.7494    0.0000 C   0  0
   -1.4470    5.2297    0.0000 C   0  0
   -2.9153    5.5365    0.0000 C   0  0
   -3.6607    4.2349    0.0000 C   0  0
   -2.6532    3.1236    0.0000 C   0  0
   -1.2990    0.7500    0.0000 N   0  0
   -1.2990   -0.7500    0.0000 C   0  0
   -2.5981   -1.5000    0.0000 O   0  0
    0.0000   -1.5000    0.0000 C   0  0
    0.0000   -3.0000    0.0000 C   0  0
    3.8990   -0.7455    0.0000 C   0  0
    5.2007   -1.4909    0.0000 C   0  0
    5.2060   -2.9909    0.0000 F   0  0
    6.4972   -0.7364    0.0000 C   0  0
    6.4920    0.7636    0.0000 C   0  0
    5.1903    1.5091    0.0000 C   0  0
    3.8939    0.7546    0.0000 C   0  0
    2.5923    1.5001    0.0000 F   0  0
  1  2  1  0
  3  2  1  4
  3  4  1  0
  4  5  1  0
  5  6  2  0
  6  7  1  0
  7  8  1  0
  8  9  1  0
  9 10  1  0
 10 11  1  0
 11 12  1  0
 12  8  1  0
  6 13  1  0
 13 14  1  0
 14 15  2  0
 14 16  1  0
 16  4  2  0
 16 17  1  0
  3 18  1  0
 18 19  2  0
 19 20  1  0
 19 21  1  0
 21 22  2  0
 22 23  1  0
 23 24  2  0
 24 18  1  0
 24 25  1  0
M  END
> <Smiles>
COC(c1nc(NC2CCCC2)[nH]c(=O)c1C)c1c(F)cccc1F

> <IC50_uM>
0.85

> <pIC50>
6.070581074

> <Activity>
1

$$$$

  SciTegic10102310092D

 21 23  0  0  0  0            999 V2000
    2.5532   -4.4223    0.0000 C   0  0
    1.8032   -3.1233    0.0000 C   0  0
    2.4133   -1.7530    0.0000 S   0  0
    1.2990   -0.7500    0.0000 C   0  0
    1.2990    0.7500    0.0000 N   0  0
    0.0000    1.5000    0.0000 C   0  0
    0.0000    3.0008    0.0000 C   0  0
    1.2978    3.7529    0.0000 C   0  0
    1.2954    5.2529    0.0000 C   0  0
   -0.0048    6.0009    0.0000 C   0  0
   -0.0103    7.5017    0.0000 N   0  3
   -1.3116    8.2478    0.0000 O   0  0
    1.2863    8.2560    0.0000 O   0  5
   -1.3026    5.2488    0.0000 C   0  0
   -1.3002    3.7488    0.0000 C   0  0
   -1.2990    0.7500    0.0000 N   0  0
   -1.2990   -0.7500    0.0000 C   0  0
   -2.5981   -1.5000    0.0000 O   0  0
    0.0000   -1.5000    0.0000 C   0  0
    0.3114   -2.9665    0.0000 C   0  0
   -0.6923   -4.0811    0.0000 C   0  0
  1  2  1  0
  2  3  1  0
  3  4  1  0
  4  5  1  0
  5  6  2  0
  6  7  1  0
  7  8  2  0
  8  9  1  0
  9 10  2  0
 10 11  1  0
 11 12  2  0
 11 13  1  0
 10 14  1  0
 14 15  2  0
 15  7  1  0
  6 16  1  0
 16 17  1  0
 17 18  2  0
 17 19  1  0
 19  4  2  0
 19 20  1  0
 20  2  2  0
 20 21  1  0
M  CHG  2  11   1  13  -1
M  END
> <Smiles>
Cc1sc2nc(-c3ccc([N+](=O)[O-])cc3)[nH]c(=O)c2c1C

> <IC50_uM>
0.85

> <pIC50>
6.070581074

> <Activity>
1

$$$$

  SciTegic10102310092D

 11 11  0  0  0  0            999 V2000
    2.5973   -1.5031    0.0000 C   0  0
    1.2990   -0.7500    0.0000 C   0  0
    1.2990    0.7500    0.0000 C   0  0
    0.0000    1.5000    0.0000 C   0  0
   -1.2990    0.7500    0.0000 C   0  0
   -2.6003    1.4977    0.0000 As  0  0
   -3.8983    0.7459    0.0000 O   0  0
   -1.2990   -0.7500    0.0000 C   0  0
    0.0000   -1.5000    0.0000 C   0  0
    3.8976   -0.7553    0.0000 O   0  0
    2.5951   -3.0031    0.0000 O   0  0
  1  2  1  0
  2  3  2  0
  3  4  1  0
  4  5  2  0
  5  6  1  0
  6  7  2  0
  5  8  1  0
  8  9  2  0
  9  2  1  0
  1 10  1  0
  1 11  2  0
M  END
> <Smiles>
C(c1ccc([As]=O)cc1)(O)=O

> <IC50_uM>
0.851138038

> <pIC50>
6.07

> <Activity>
1

$$$$

  SciTegic10102310092D

 15 16  0  0  0  0            999 V2000
   -5.7445   -3.2223    0.0000 C   0  0
   -4.5628   -2.3141    0.0000 C   0  0  3  0  0  0
   -3.8642   -1.1134    0.0000 C   0  0  3  0  0  0
   -2.4451   -0.7641    0.0000 C   0  0  3  0  0  0
   -1.2226   -1.1134    0.0000 C   0  0
   -1.8993   -2.3141    0.0000 C   0  0
   -1.3251   -3.6998    0.0000 O   0  0
   -3.2310    0.3930    0.0000 C   0  0
   -3.6719    1.8267    0.0000 O   0  0
   -3.2310   -1.9430    0.0000 C   0  0  3  0  0  0
   -4.7899    0.0728    0.0000 C   0  0
   -4.2272    1.4632    0.0000 O   0  0
   -6.2754   -0.1347    0.0000 O   0  0
   -5.5470   -4.7092    0.0000 O   0  0
   -7.1311   -2.6502    0.0000 O   0  0
  2  1  1  4
  2  3  1  0
  3  4  1  0
  4  5  1  4
  5  6  1  0
  6  7  2  0
  4  8  1  0
  8  9  2  0
 10  8  1  4
 10  2  1  0
 10  6  1  0
  3 11  1  4
 11 12  1  0
 11 13  2  0
  1 14  1  0
  1 15  2  0
M  END
> <Smiles>
C(C1C(C(CC2=O)C(=O)C12)C(O)=O)(O)=O

> <IC50_uM>
0.851138038

> <pIC50>
6.07

> <Activity>
1

$$$$

  SciTegic10102310092D

 16 18  0  0  0  0            999 V2000
    3.1882   -2.6401    0.0000 O   0  0
    2.7248   -1.2135    0.0000 C   0  0
    1.2990   -0.7500    0.0000 C   0  0
    1.2990    0.7500    0.0000 C   0  0
    0.0000    1.5000    0.0000 C   0  0
   -1.2990    0.7500    0.0000 C   0  0
   -1.2990   -0.7500    0.0000 C   0  0
    0.0000   -1.5000    0.0000 N   0  0
    2.7248    1.2135    0.0000 C   0  0  3  0  0  0
    3.1884    2.6409    0.0000 C   0  0
    2.2737    3.8235    0.0000 C   0  0
    2.8432    5.2111    0.0000 C   0  0
    4.3298    5.4118    0.0000 C   0  0
    5.2468    4.2247    0.0000 C   0  0
    4.6773    2.8370    0.0000 C   0  0
    3.6065    0.0000    0.0000 O   0  0
  1  2  2  0
  2  3  1  0
  3  4  2  0
  4  5  1  0
  5  6  2  0
  6  7  1  0
  7  8  2  0
  8  3  1  0
  4  9  1  0
  9 10  1  4
 10 11  2  0
 11 12  1  0
 12 13  2  0
 13 14  1  0
 14 15  2  0
 15 10  1  0
  9 16  1  0
 16  2  1  0
M  END
> <Smiles>
O=C1c2c(cccn2)C(c3ccccc3)O1

> <IC50_uM>
0.851138038

> <pIC50>
6.07

> <Activity>
1

$$$$

  SciTegic10102310092D

 10 11  0  0  0  0            999 V2000
   -0.7014   -3.1803    0.0000 O   0  0
    0.7488   -2.7970    0.0000 S   0  0
    2.0479   -2.0470    0.0000 C   0  0
    1.2990   -0.7500    0.0000 C   0  0
    1.2990    0.7500    0.0000 C   0  0
    0.0000    1.5000    0.0000 C   0  0
   -1.2990    0.7500    0.0000 C   0  0
   -1.2990   -0.7500    0.0000 C   0  0
    0.0000   -1.5000    0.0000 C   0  0
    1.8129   -3.8542    0.0000 O   0  0
  1  2  2  0
  2  3  1  0
  3  4  1  0
  4  5  2  0
  5  6  1  0
  6  7  2  0
  7  8  1  0
  4  9  1  0
  9  2  1  0
  9  8  2  0
  2 10  2  0
M  END
> <Smiles>
O=S1(Cc(cccc2)c12)=O

> <IC50_uM>
0.851138038

> <pIC50>
6.07

> <Activity>
1

$$$$

  SciTegic10102310092D

 11 12  0  0  0  0            999 V2000
   -0.6923   -4.0811    0.0000 C   0  0
    0.3114   -2.9665    0.0000 C   0  0
    1.8032   -3.1233    0.0000 N   0  0
    2.4133   -1.7530    0.0000 N   0  0
    1.2990   -0.7500    0.0000 C   0  0
    1.2990    0.7500    0.0000 C   0  0
    0.0000    1.5000    0.0000 O   0  0
   -1.2990    0.7500    0.0000 C   0  0
   -2.5981    1.5000    0.0000 O   0  0
   -1.2990   -0.7500    0.0000 N   0  0
    0.0000   -1.5000    0.0000 C   0  0
  1  2  1  0
  2  3  2  0
  3  4  1  0
  4  5  1  0
  5  6  1  0
  6  7  1  0
  7  8  1  0
  8  9  2  0
  8 10  1  0
  5 11  2  0
 11  2  1  0
 11 10  1  0
M  END
> <Smiles>
Cc1n[nH]c(COC(=O)N2)c12

> <IC50_uM>
0.851138038

> <pIC50>
6.07

> <Activity>
1

$$$$

  SciTegic10102310092D

 15 14  0  0  0  0            999 V2000
    3.9000    0.7500    0.0000 C   0  0  3  0  0  0
    3.9031    2.2508    0.0000 C   0  0
    2.6053    3.0031    0.0000 O   0  0
    4.7698    2.7496    0.0000 O   0  0
    2.6000    0.0000    0.0000 C   0  0
    1.3000    0.7500    0.0000 C   0  0
    0.0007    0.0004    0.0000 C   0  0
    5.2000    0.0000    0.0000 C   0  0
    6.5000    0.7500    0.0000 C   0  0  3  0  0  0
    6.5030    2.2508    0.0000 C   0  0
    5.6379    2.7523    0.0000 O   0  0
    7.8031    2.9990    0.0000 O   0  0
    7.7999    0.0000    0.0000 C   0  0
    9.0999    0.7500    0.0000 C   0  0
   10.3992    0.0004    0.0000 C   0  0
  1  2  1  0
  2  3  1  0
  2  4  2  0
  1  5  1  4
  5  6  1  0
  6  7  2  0
  1  8  1  0
  9  8  1  4
  9 10  1  0
 10 11  1  0
 10 12  2  0
  9 13  1  0
 13 14  1  0
 14 15  2  0
M  END
> <Smiles>
C(C(O)=O)(CC=C)CC(C(O)=O)CC=C

> <IC50_uM>
0.851138038

> <pIC50>
6.07

> <Activity>
1

$$$$

  SciTegic10102310092D

 10 10  0  0  0  0            999 V2000
    2.6003   -1.4977    0.0000 O   0  0
    1.2990   -0.7500    0.0000 C   0  0
    1.2990    0.7500    0.0000 C   0  0
    0.0000    1.5000    0.0000 C   0  0
   -1.2990    0.7500    0.0000 C   0  0
   -1.2990   -0.7500    0.0000 C   0  0
   -2.5981   -1.5000    0.0000 N   0  0
    0.0000   -1.5000    0.0000 C   0  0
    0.0000   -3.0000    0.0000 N   0  0
    3.8983   -0.7459    0.0000 C   0  0
  1  2  1  0
  2  3  2  0
  3  4  1  0
  4  5  2  0
  5  6  1  0
  6  7  1  0
  6  8  2  0
  8  2  1  0
  8  9  1  0
  1 10  1  0
M  END
> <Smiles>
O(c1cccc(N)c1N)C

> <IC50_uM>
0.851138038

> <pIC50>
6.07

> <Activity>
1

$$$$

  SciTegic10102310092D

 15 16  0  0  0  0            999 V2000
    1.2990   -0.7500    0.0000 C   0  0
    2.7248   -1.2135    0.0000 N   0  0
    3.6065    0.0000    0.0000 O   0  0
    2.7248    1.2135    0.0000 C   0  0  3  0  0  0
    1.7034    2.3121    0.0000 C   0  0
    4.1845    1.4996    0.0000 C   0  0
    5.1893    0.3848    0.0000 O   0  0
    6.6574    0.6966    0.0000 C   0  0
    7.1206    2.1233    0.0000 C   0  0
    7.6616   -0.4176    0.0000 O   0  0
    1.2990    0.7500    0.0000 C   0  0  3  0  0  0
    0.0000    1.5000    0.0000 C   0  0
   -1.2990    0.7500    0.0000 C   0  0
   -1.2990   -0.7500    0.0000 C   0  0
    0.0000   -1.5000    0.0000 C   0  0
  1  2  2  0
  2  3  1  0
  3  4  1  0
  4  5  1  4
  4  6  1  0
  6  7  1  0
  7  8  1  0
  8  9  1  0
  8 10  2  0
  1 11  1  0
 11  4  1  0
 11 12  1  4
 12 13  1  0
 13 14  1  0
 14 15  1  0
 15  1  1  0
M  END
> <Smiles>
C1(=NOC2(C)COC(C)=O)C2CCCC1

> <IC50_uM>
0.851138038

> <pIC50>
6.07

> <Activity>
1

$$$$

  SciTegic10102310092D

 16 18  0  0  0  0            999 V2000
    0.3114   -2.9665    0.0000 C   0  0  3  0  0  0
    1.8032   -3.1233    0.0000 C   0  0
    2.5532   -4.4223    0.0000 O   0  0
    2.4133   -1.7530    0.0000 N   0  0
    3.8805   -1.4410    0.0000 C   0  0
    1.2990   -0.7500    0.0000 C   0  0
    1.2990    0.7500    0.0000 C   0  0
    0.0000    1.5000    0.0000 C   0  0
   -1.2990    0.7500    0.0000 C   0  0
   -1.2990   -0.7500    0.0000 C   0  0
    0.0000   -1.5000    0.0000 C   0  0
   -1.1186   -3.5538    0.0000 C   0  0
   -1.3921   -5.0287    0.0000 C   0  0
   -0.2515   -6.0029    0.0000 C   0  0
    1.1625   -5.5023    0.0000 C   0  0
    1.4359   -4.0274    0.0000 C   0  0
  1  2  1  0
  2  3  2  0
  2  4  1  0
  4  5  1  0
  4  6  1  0
  6  7  2  0
  7  8  1  0
  8  9  2  0
  9 10  1  0
  6 11  1  0
 11  1  1  0
 11 10  2  0
  1 12  1  4
 12 13  1  0
 13 14  1  0
 14 15  1  0
 15 16  2  0
 16  1  1  0
M  END
> <Smiles>
C12(C(=O)N(C)c(cccc3)c13)CCCC=C2

> <IC50_uM>
0.851138038

> <pIC50>
6.07

> <Activity>
1

$$$$

  SciTegic10102310092D

 14 14  0  0  0  0            999 V2000
    3.4641    0.0000    0.0000 Si  0  0
    4.2149    1.2986    0.0000 C   0  0
    4.2137   -1.2993    0.0000 C   0  0
    4.9641   -0.0007    0.0000 C   0  0
    1.9598    0.0000    0.0000 C   0  0
    1.3858    1.3858    0.0000 C   0  0
    0.0000    1.9598    0.0000 C   0  0
   -1.3858    1.3858    0.0000 C   0  0
   -1.9598    0.0000    0.0000 C   0  0  3  0  0  0
   -1.3858   -1.3858    0.0000 O   0  0
    0.0000   -1.9598    0.0000 C   0  0  3  0  0  0
    0.0000   -3.4598    0.0000 C   0  0
   -3.4598    0.0000    0.0000 C   0  0
    1.3858   -1.3858    0.0000 C   0  0
  1  2  1  0
  1  3  1  0
  1  4  1  0
  1  5  1  0
  5  6  2  0
  6  7  1  0
  7  8  1  0
  8  9  1  0
  9 10  1  0
 10 11  1  0
 11 12  1  4
  9 13  1  4
  5 14  1  0
 14 11  1  0
M  END
> <Smiles>
[Si](C)(C)(C)\C(=C\CCC(OC1C)C)\C1

> <IC50_uM>
0.851138038

> <pIC50>
6.07

> <Activity>
1

$$$$

  SciTegic10102310092D

 14 13  0  0  0  0            999 V2000
   10.3999    0.0000    0.0000 C   0  0
    9.0999    0.7500    0.0000 C   0  0
    7.7999    0.0000    0.0000 C   0  0
    6.5000    0.7500    0.0000 C   0  0
    5.2000    0.0000    0.0000 N   0  0
    3.9000    0.7500    0.0000 C   0  0
    2.6000    0.0000    0.0000 C   0  0
    1.3000    0.7500    0.0000 C   0  0
    1.3000    2.2500    0.0000 C   0  0
    0.0007    0.0004    0.0000 C   0  0
   11.6999    0.7500    0.0000 Si  0  0
   12.9992    0.0004    0.0000 C   0  0
   12.9988    1.5002    0.0000 C   0  0
   11.6999    2.2500    0.0000 C   0  0
  1  2  2  0
  2  3  1  0
  3  4  1  0
  4  5  1  0
  5  6  1  0
  6  7  1  0
  7  8  1  0
  8  9  1  0
  8 10  2  0
  1 11  1  0
 11 12  1  0
 11 13  1  0
 11 14  1  0
M  END
> <Smiles>
C(=C\CCNCCC(C)=C)/[Si](C)(C)C

> <IC50_uM>
0.851138038

> <pIC50>
6.07

> <Activity>
1

$$$$

  SciTegic10102310092D

 15 15  0  0  0  0            999 V2000
    1.6317   -2.2458    0.0000 O   0  0
    0.7500   -1.0323    0.0000 C   0  0
    1.2135    0.3943    0.0000 C   0  0
    0.0000    1.2760    0.0000 O   0  0
   -1.2135    0.3943    0.0000 C   0  0
   -2.6375    0.8602    0.0000 N   0  0
   -2.9474    2.3287    0.0000 C   0  0
   -4.3738    2.7954    0.0000 C   0  0
   -4.6836    4.2631    0.0000 C   0  0
   -0.7500   -1.0323    0.0000 C   0  0
   -1.6281   -2.2462    0.0000 C   0  0
   -1.0157   -3.6164    0.0000 O   0  0
   -1.8953   -4.8324    0.0000 C   0  0
   -1.2833   -6.2019    0.0000 C   0  0
   -3.1202   -2.0921    0.0000 O   0  0
  1  2  2  0
  2  3  1  0
  3  4  1  0
  4  5  1  0
  5  6  1  0
  6  7  1  0
  7  8  1  0
  8  9  2  0
  5 10  2  0
 10  2  1  0
 10 11  1  0
 11 12  1  0
 12 13  1  0
 13 14  1  0
 11 15  2  0
M  END
> <Smiles>
O=C1COC(NCC=C)=C1C(OCC)=O

> <IC50_uM>
0.851138038

> <pIC50>
6.07

> <Activity>
1

$$$$

  SciTegic10102310092D

 16 17  0  0  0  0            999 V2000
    1.2990   -0.7500    0.0000 C   0  0
    1.2990    0.7500    0.0000 C   0  0
    2.4133    1.7530    0.0000 C   0  0
    3.8794    1.4442    0.0000 C   0  0
    4.3468    0.0181    0.0000 C   0  0
    5.8154   -0.2912    0.0000 O   0  0
    6.2826   -1.7166    0.0000 C   0  0
    3.3456   -1.0989    0.0000 O   0  0
    4.8812    2.5618    0.0000 C   0  0
    5.8824    3.6787    0.0000 N   0  0
    1.8032    3.1233    0.0000 C   0  0
    0.3114    2.9665    0.0000 C   0  0
    0.0000    1.5000    0.0000 C   0  0
   -1.2990    0.7500    0.0000 C   0  0
   -1.2990   -0.7500    0.0000 C   0  0
    0.0000   -1.5000    0.0000 C   0  0
  1  2  2  0
  2  3  1  0
  3  4  2  0
  4  5  1  0
  5  6  1  0
  6  7  1  0
  5  8  2  0
  4  9  1  0
  9 10  3  0
  3 11  1  0
 11 12  1  0
  2 13  1  0
 13 12  1  0
 13 14  2  0
 14 15  1  0
 15 16  2  0
 16  1  1  0
M  END
> <Smiles>
c1c(\C(=C(/C(OC)=O)\C#N)\CC2)c2ccc1

> <IC50_uM>
0.851138038

> <pIC50>
6.07

> <Activity>
1

$$$$

  SciTegic10102310092D

 16 17  0  0  0  0            999 V2000
    2.5981   -1.5000    0.0000 C   0  0
    1.2990   -0.7500    0.0000 C   0  0
    1.2990    0.7500    0.0000 C   0  0
    2.5988    1.5004    0.0000 C   0  0
    3.8978    2.2504    0.0000 N   0  0
    0.0000    1.5000    0.0000 C   0  0
    0.0000    3.0000    0.0000 N   0  0
   -1.2991    3.7500    0.0000 N   0  0
   -2.5981    3.0000    0.0000 C   0  0
   -2.5981    1.5000    0.0000 C   0  0
   -3.8971    0.7500    0.0000 O   0  0
   -3.8971    3.7500    0.0000 C   0  0
   -1.2990    0.7500    0.0000 C   0  0
   -1.2990   -0.7500    0.0000 C   0  0
    0.0000   -1.5000    0.0000 C   0  0
    0.0000   -3.0000    0.0000 C   0  0
  1  2  1  0
  2  3  2  0
  3  4  1  0
  4  5  3  0
  3  6  1  0
  6  7  1  0
  7  8  1  0
  8  9  2  0
  9 10  1  0
 10 11  2  0
  9 12  1  0
  6 13  2  0
 13 10  1  0
 13 14  1  0
 14 15  2  0
 15  2  1  0
 15 16  1  0
M  END
> <Smiles>
Cc1c(C#N)c(NN=C(C2=O)C)c2cc1C

> <IC50_uM>
0.851138038

> <pIC50>
6.07

> <Activity>
1

$$$$

  SciTegic10102310092D

 15 17  0  0  0  0            999 V2000
    1.2990   -0.7500    0.0000 C   0  0
    1.2990    0.7500    0.0000 C   0  0  3  0  0  0
    0.0000    1.5000    0.0000 C   0  0  3  0  0  0
    0.3114    2.9665    0.0000 O   0  0
    1.8032    3.1233    0.0000 C   0  0
    1.0338    4.4109    0.0000 C   0  0
    3.3030    3.1010    0.0000 C   0  0
    2.4133    1.7530    0.0000 O   0  0
   -1.2990    0.7500    0.0000 C   0  0
   -1.2990   -0.7500    0.0000 C   0  0  3  0  0  0
   -2.4133   -1.7530    0.0000 C   0  0
   -1.8032   -3.1233    0.0000 O   0  0
   -0.3114   -2.9665    0.0000 C   0  0
    0.6924   -4.0811    0.0000 O   0  0
    0.0000   -1.5000    0.0000 C   0  0  3  0  0  0
  2  1  1  4
  2  3  1  0
  3  4  1  4
  4  5  1  0
  5  6  1  0
  5  7  1  0
  5  8  1  0
  8  2  1  0
  3  9  1  0
 10  9  1  4
 10 11  1  0
 11 12  1  0
 12 13  1  0
 13 14  2  0
 10 15  1  0
 15  1  1  4
 15 13  1  0
M  END
> <Smiles>
C1C2C(OC(C)(C)O2)CC(COC3=O)C13

> <IC50_uM>
0.851138038

> <pIC50>
6.07

> <Activity>
1

$$$$

  SciTegic10102310092D

 15 15  0  0  0  0            999 V2000
    1.2990   -0.7500    0.0000 N   0  0
    1.2990    0.7500    0.0000 C   0  0
    2.5981    1.5000    0.0000 O   0  0
    0.0000    1.5000    0.0000 C   0  0
   -0.0031    3.0008    0.0000 C   0  0
   -1.3039    3.7494    0.0000 C   0  0  3  0  0  0
   -2.6017    2.9971    0.0000 C   0  0
   -1.3070    5.2494    0.0000 O   0  0
   -1.2990    0.7500    0.0000 C   0  0
   -1.2990   -0.7500    0.0000 N   0  0
   -2.6003   -1.4978    0.0000 C   0  0
   -2.6029   -2.9978    0.0000 C   0  0
   -3.8983   -0.7459    0.0000 O   0  0
    0.0000   -1.5000    0.0000 C   0  0
    0.0000   -3.0000    0.0000 O   0  0
  1  2  1  0
  2  3  2  0
  2  4  1  0
  4  5  1  0
  5  6  1  0
  6  7  1  4
  6  8  1  0
  4  9  2  0
  9 10  1  0
 10 11  1  0
 11 12  1  0
 11 13  2  0
 10 14  1  0
 14  1  1  0
 14 15  2  0
M  END
> <Smiles>
N1C(=O)C(CC(C)O)=CN(C(C)=O)C1=O

> <IC50_uM>
0.851138038

> <pIC50>
6.07

> <Activity>
1

$$$$

  SciTegic10102310092D

 15 15  0  0  0  0            999 V2000
    1.2990   -0.7500    0.0000 C   0  0
    2.5973   -1.5031    0.0000 N   0  0
    2.5951   -3.0039    0.0000 C   0  0
    3.8933   -3.7570    0.0000 C   0  0
    3.8912   -5.2578    0.0000 C   0  0
    5.1894   -6.0109    0.0000 N   0  0
    5.1873   -7.5109    0.0000 N   0  0
    2.5909   -6.0056    0.0000 O   0  0
    1.2948   -3.7516    0.0000 O   0  0
    1.2990    0.7500    0.0000 C   0  0
    2.5981    1.5000    0.0000 F   0  0
    0.0000    1.5000    0.0000 C   0  0
   -1.2990    0.7500    0.0000 C   0  0
   -1.2990   -0.7500    0.0000 C   0  0
    0.0000   -1.5000    0.0000 C   0  0
  1  2  1  0
  2  3  1  0
  3  4  1  0
  4  5  1  0
  5  6  1  0
  6  7  1  0
  5  8  2  0
  3  9  2  0
  1 10  2  0
 10 11  1  0
 10 12  1  0
 12 13  2  0
 13 14  1  0
 14 15  2  0
 15  1  1  0
M  END
> <Smiles>
c1(NC(CC(NN)=O)=O)c(F)cccc1

> <IC50_uM>
0.851138038

> <pIC50>
6.07

> <Activity>
1

$$$$

  SciTegic10102310092D

 15 16  0  0  0  0            999 V2000
    2.4133   -1.7530    0.0000 C   0  0  3  0  0  0
    3.8794   -1.4442    0.0000 C   0  0
    4.8817   -2.5602    0.0000 C   0  0
    4.3452   -0.0184    0.0000 C   0  0
    1.2990   -0.7500    0.0000 N   0  0
    1.2990    0.7500    0.0000 C   0  0
    0.0000    1.5000    0.0000 C   0  0  3  0  0  0
    0.0000    3.0000    0.0000 C   0  0
   -1.2990    0.7500    0.0000 C   0  0  3  0  0  0
   -1.2990   -0.7500    0.0000 O   0  0
   -2.5981    1.5000    0.0000 C   0  0
    2.5981    1.5000    0.0000 O   0  0
    0.0000   -1.5000    0.0000 C   0  0  3  0  0  0
    0.3114   -2.9665    0.0000 O   0  0
    1.8032   -3.1233    0.0000 C   0  0
  1  2  1  4
  2  3  1  0
  2  4  1  0
  1  5  1  0
  5  6  1  0
  6  7  1  0
  7  8  1  4
  7  9  1  0
  9 10  1  0
  9 11  1  4
  6 12  2  0
  5 13  1  0
 13 10  1  4
 13 14  1  0
 14 15  1  0
 15  1  1  0
M  END
> <Smiles>
C1(C(C)C)N(C(C(C)C(O2)C)=O)C2OC1

> <IC50_uM>
0.851138038

> <pIC50>
6.07

> <Activity>
1

$$$$

  SciTegic10102310092D

 15 17  0  0  0  0            999 V2000
   -2.8500   -0.7400    0.0000 C   0  0
   -2.8500   -1.5200    0.0000 C   0  0  3  0  0  0
   -4.4800   -2.2100    0.0000 C   0  0
   -1.4000   -1.8100    0.0000 C   0  0
    0.4600   -1.4800    0.0000 C   0  0  3  0  0  0
   -1.1200   -2.5800    0.0000 C   0  0
   -2.6000   -2.1800    0.0000 C   0  0  3  0  0  0
   -2.5400   -1.3600    0.0000 C   0  0
    0.4900   -0.6700    0.0000 C   0  0
   -1.2300   -0.3200    0.0000 C   0  0  3  0  0  0
   -1.2199    1.1800    0.0000 F   0  0
    1.9106   -1.2350    0.0000 N   0  0
    2.4354    0.1711    0.0000 C   0  0
    1.4802    1.3276    0.0000 N   0  0
    3.9145    0.4205    0.0000 O   0  0
  2  1  1  4
  2  3  1  0
  2  4  1  0
  4  5  1  0
  5  6  1  0
  7  6  1  4
  7  3  1  0
  7  8  1  0
  5  9  1  0
  9 10  1  0
 10  1  1  0
 10  8  1  0
 10 11  1  4
  5 12  1  4
 12 13  1  0
 13 14  1  0
 13 15  2  0
M  END
> <Smiles>
C1C(C2)CC(CC2C3)(CC13F)NC(N)=O

> <IC50_uM>
0.851138038

> <pIC50>
6.07

> <Activity>
1

$$$$

  SciTegic10102310092D

 15 14  0  0  0  0            999 V2000
    6.4985   -2.2516    0.0000 O   0  0
    5.2000   -1.5007    0.0000 C   0  0
    5.2000    0.0000    0.0000 C   0  0
    3.8732   -0.7619    0.0000 C   0  0
    3.0085   -0.2597    0.0000 O   0  0
    3.8703   -1.7619    0.0000 O   0  0
    3.9000    0.7500    0.0000 C   0  0
    3.8985    2.2508    0.0000 C   0  0
    2.5986    3.0008    0.0000 C   0  0
    2.5971    4.5008    0.0000 C   0  0
    6.5000    0.7500    0.0000 C   0  0
    7.7999    0.0000    0.0000 C   0  0
    9.0999    0.7500    0.0000 C   0  0
   10.3992    0.0004    0.0000 C   0  0
    4.3338   -2.0005    0.0000 O   0  0
  1  2  2  0
  2  3  1  0
  3  4  1  0
  4  5  1  0
  4  6  2  0
  3  7  1  0
  7  8  1  0
  8  9  1  0
  9 10  2  0
  3 11  1  0
 11 12  1  0
 12 13  1  0
 13 14  2  0
  2 15  1  0
M  END
> <Smiles>
O=C(C(C(O)=O)(CCC=C)CCC=C)O

> <IC50_uM>
0.851138038

> <pIC50>
6.07

> <Activity>
1

$$$$

  SciTegic10102310092D

 25 27  0  0  0  0            999 V2000
   -0.6923   -4.0811    0.0000 C   0  0
    0.3114   -2.9665    0.0000 C   0  0
    1.8032   -3.1233    0.0000 N   0  0
    2.4133   -1.7530    0.0000 C   0  0
    3.8794   -1.4442    0.0000 C   0  0
    4.8823   -2.5608    0.0000 C   0  0
    6.3509   -2.2515    0.0000 C   0  0
    7.3538   -3.3681    0.0000 C   0  0
    8.8224   -3.0588    0.0000 C   0  0
    9.8253   -4.1753    0.0000 C   0  0
   11.2939   -3.8660    0.0000 C   0  0  3  0  0  0
   11.7596   -2.4402    0.0000 O   0  0
   12.2967   -4.9826    0.0000 C   0  0
   13.7650   -4.6756    0.0000 C   0  0
   14.7651   -5.7936    0.0000 C   0  0
   14.2969   -7.2187    0.0000 C   0  0
   12.8286   -7.5258    0.0000 C   0  0
   11.8286   -6.4078    0.0000 C   0  0
    1.2990   -0.7500    0.0000 N   0  0
    1.2990    0.7500    0.0000 N   0  0
    0.0000    1.5000    0.0000 C   0  0
    0.0000    3.0000    0.0000 Cl  0  0
   -1.2990    0.7500    0.0000 C   0  0
   -1.2990   -0.7500    0.0000 C   0  0
    0.0000   -1.5000    0.0000 C   0  0
  1  2  1  0
  2  3  1  0
  3  4  2  0
  4  5  1  0
  5  6  1  0
  6  7  1  0
  7  8  1  0
  8  9  1  0
  9 10  1  0
 10 11  1  0
 11 12  1  4
 11 13  1  0
 13 14  2  0
 14 15  1  0
 15 16  2  0
 16 17  1  0
 17 18  2  0
 18 13  1  0
  4 19  1  0
 19 20  1  0
 20 21  2  0
 21 22  1  0
 21 23  1  0
 23 24  2  0
 24 25  1  0
 25  2  2  0
 25 19  1  0
M  END
> <Smiles>
Cc1nc(CCCCCCC(O)c2ccccc2)n2nc(Cl)ccc12

> <IC50_uM>
0.86

> <pIC50>
6.065501549

> <Activity>
1

$$$$

  SciTegic10102310092D

 33 36  0  0  0  0            999 V2000
    3.1676   -7.5606    0.0000 C   0  0
    1.7006   -7.2475    0.0000 C   0  0
    0.6960   -8.3614    0.0000 C   0  0
   -0.7710   -8.0483    0.0000 C   0  0
   -1.7756   -9.1622    0.0000 C   0  0
   -1.2333   -6.6213    0.0000 C   0  0
   -0.2287   -5.5075    0.0000 C   0  0
   -0.6913   -4.0797    0.0000 S   0  0
   -2.1584   -3.7671    0.0000 O   0  0
   -1.6957   -5.1937    0.0000 O   0  0
    0.3114   -2.9665    0.0000 C   0  0
    1.8032   -3.1233    0.0000 C   0  0
    2.5551   -4.4192    0.0000 C   0  0
    1.8074   -5.7196    0.0000 O   0  0
    4.0559   -4.4171    0.0000 N   0  0
    4.8090   -5.7153    0.0000 C   0  0
    6.3098   -5.7131    0.0000 N   0  0
    7.0644   -7.0095    0.0000 C   0  0
    8.5644   -7.0043    0.0000 C   0  0
    9.3099   -5.7026    0.0000 O   0  0
    8.5554   -4.4062    0.0000 C   0  0
    7.0554   -4.4114    0.0000 C   0  0
    2.4133   -1.7530    0.0000 N   0  0
    1.2990   -0.7500    0.0000 C   0  0
    1.2990    0.7500    0.0000 C   0  0
    0.0000    1.5000    0.0000 C   0  0
   -1.2990    0.7500    0.0000 C   0  0
   -2.6003    1.4977    0.0000 N   0  3
   -3.8983    0.7459    0.0000 O   0  0
   -2.6030    2.9977    0.0000 O   0  5
   -1.2990   -0.7500    0.0000 C   0  0
    0.0000   -1.5000    0.0000 C   0  0
    1.2383   -5.8206    0.0000 C   0  0
  1  2  1  0
  2  3  2  0
  3  4  1  0
  4  5  1  0
  4  6  2  0
  6  7  1  0
  7  8  1  0
  8  9  2  0
  8 10  2  0
  8 11  1  0
 11 12  2  0
 12 13  1  0
 13 14  2  0
 13 15  1  0
 15 16  1  0
 16 17  1  0
 17 18  1  0
 18 19  1  0
 19 20  1  0
 20 21  1  0
 21 22  1  0
 22 17  1  0
 12 23  1  0
 23 24  1  0
 24 25  2  0
 25 26  1  0
 26 27  2  0
 27 28  1  0
 28 29  2  0
 28 30  1  0
 27 31  1  0
 31 32  2  0
 32 11  1  0
 32 24  1  0
  7 33  2  0
 33  2  1  0
M  CHG  2  28   1  30  -1
M  END
> <Smiles>
Cc1cc(C)cc(S(=O)(=O)c2c(C(=O)NCN3CCOCC3)[nH]c3ccc([N+](=O)[O-])cc23)c1

> <IC50_uM>
0.864

> <pIC50>
6.063486258

> <Activity>
1

$$$$

  SciTegic10102310092D

 16 17  0  0  0  0            999 V2000
    3.1510   -0.7161    0.0000 C   0  0
    4.1703    0.3856    0.0000 C   0  0
    5.6339    0.0569    0.0000 C   0  0
    6.6503    1.1600    0.0000 C   0  0
    6.2033    2.5918    0.0000 C   0  0
    4.7397    2.9206    0.0000 C   0  0
    3.7233    1.8175    0.0000 C   0  0
    1.6852   -0.3846    0.0000 N   0  0
    1.3514    1.0778    0.0000 C   0  0
    0.0000    1.7286    0.0000 C   0  0
   -1.3515    1.0777    0.0000 C   0  0
   -1.6852   -0.3847    0.0000 C   0  0
   -0.7500   -1.5574    0.0000 C   0  0
    0.7500   -1.5574    0.0000 C   0  0
    1.4008   -2.9088    0.0000 O   0  0
    3.5956   -2.1486    0.0000 O   0  0
  1  2  1  0
  2  3  2  0
  3  4  1  0
  4  5  2  0
  5  6  1  0
  6  7  2  0
  7  2  1  0
  1  8  1  0
  8  9  1  0
  9 10  1  0
 10 11  1  0
 11 12  1  0
 12 13  1  0
 13 14  1  0
 14  8  1  0
 14 15  2  0
  1 16  2  0
M  END
> <Smiles>
C(c1ccccc1)(N2CCCCCC2=O)=O

> <IC50_uM>
0.87096359

> <pIC50>
6.06

> <Activity>
1

$$$$

  SciTegic10102310092D

 15 14  0  0  0  0            999 V2000
    5.2000    0.0000    0.0000 C   0  0
    5.2000   -1.5000    0.0000 C   0  0
    3.9000    0.7500    0.0000 C   0  0
    3.8985    2.2508    0.0000 C   0  0
    2.5986    3.0008    0.0000 C   0  0
    1.3000    2.2500    0.0000 O   0  0
    2.5971    4.5008    0.0000 O   0  0
    6.5000    0.7500    0.0000 C   0  0
    7.7999    0.0000    0.0000 C   0  0
    9.0999    0.7500    0.0000 C   0  0
    9.0999    2.2500    0.0000 O   0  0
   10.3992    0.0004    0.0000 O   0  0
    3.8760   -0.7669    0.0000 N   0  3
    2.5762   -0.0183    0.0000 O   0  5
    3.8773   -2.2669    0.0000 O   0  0
  1  2  1  0
  1  3  1  0
  3  4  1  0
  4  5  1  0
  5  6  1  0
  5  7  2  0
  1  8  1  0
  8  9  1  0
  9 10  1  0
 10 11  1  0
 10 12  2  0
  1 13  1  0
 13 14  1  0
 13 15  2  0
M  CHG  2  13   1  14  -1
M  END
> <Smiles>
C(C)(CCC(O)=O)(CCC(O)=O)[N+]([O-])=O

> <IC50_uM>
0.87096359

> <pIC50>
6.06

> <Activity>
1

$$$$

  SciTegic10102310092D

 16 17  0  0  0  0            999 V2000
    2.5981   -1.5000    0.0000 O   0  0
    1.2990   -0.7500    0.0000 C   0  0
    1.2990    0.7500    0.0000 C   0  0
    0.0000    1.5000    0.0000 C   0  0
   -1.2990    0.7500    0.0000 C   0  0
   -2.5981    1.5000    0.0000 C   0  0
   -1.2990   -0.7500    0.0000 N   0  0
    0.0000   -1.5000    0.0000 N   0  0
    0.0000   -3.0008    0.0000 C   0  0
   -1.2978   -3.7529    0.0000 C   0  0
   -1.2955   -5.2529    0.0000 C   0  0
    0.0048   -6.0009    0.0000 C   0  0
    0.0102   -7.5017    0.0000 O   0  0
    1.3115   -8.2478    0.0000 C   0  0
    1.3026   -5.2488    0.0000 C   0  0
    1.3002   -3.7488    0.0000 C   0  0
  1  2  2  0
  2  3  1  0
  3  4  2  0
  4  5  1  0
  5  6  1  0
  5  7  2  0
  7  8  1  0
  8  2  1  0
  8  9  1  0
  9 10  2  0
 10 11  1  0
 11 12  2  0
 12 13  1  0
 13 14  1  0
 12 15  1  0
 15 16  2  0
 16  9  1  0
M  END
> <Smiles>
O=C1C=CC(C)=NN1c2ccc(OC)cc2

> <IC50_uM>
0.87096359

> <pIC50>
6.06

> <Activity>
1

$$$$

  SciTegic10102310092D

 13 14  0  0  0  0            999 V2000
    1.2636   -2.2496    0.0000 O   0  0
    1.2990   -0.7500    0.0000 S   0  0
    1.2990    0.7500    0.0000 N   0  0
    0.0000    1.5000    0.0000 C   0  0
   -1.2990    0.7500    0.0000 N   0  0
   -1.2990   -0.7500    0.0000 C   0  0
   -2.4133   -1.7530    0.0000 N   0  0
   -1.8032   -3.1233    0.0000 C   0  0
   -0.3114   -2.9665    0.0000 N   0  0
    0.6924   -4.0811    0.0000 C   0  0
    0.0000   -1.5000    0.0000 C   0  0
    0.0000    3.0000    0.0000 S   0  0
    2.5801    0.0303    0.0000 O   0  0
  1  2  2  0
  2  3  2  0
  3  4  1  0
  4  5  2  0
  5  6  1  0
  6  7  1  0
  7  8  2  0
  8  9  1  0
  9 10  1  0
  6 11  2  0
 11  2  1  0
 11  9  1  0
  4 12  1  0
  2 13  1  0
M  END
> <Smiles>
O=s1(nc(nc(ncn2C)c12)S)O

> <IC50_uM>
0.87096359

> <pIC50>
6.06

> <Activity>
1

$$$$

  SciTegic10102310092D

 14 14  0  0  0  0            999 V2000
    2.5951   -3.0039    0.0000 P   0  0
    1.2948   -3.7516    0.0000 O   0  0
    3.8933   -3.7570    0.0000 O   0  0
    3.8912   -5.2570    0.0000 C   0  0
    2.5903   -4.5339    0.0000 O   0  0
    1.2893   -5.2805    0.0000 C   0  0
    2.5973   -1.5031    0.0000 C   0  0
    1.2990   -0.7500    0.0000 C   0  0
    1.2990    0.7500    0.0000 C   0  0
    0.0000    1.5000    0.0000 C   0  0
   -1.2990    0.7500    0.0000 C   0  0
   -1.2990   -0.7500    0.0000 C   0  0
    0.0000   -1.5000    0.0000 C   0  0
    3.8976   -0.7553    0.0000 O   0  0
  1  2  2  0
  1  3  1  0
  3  4  1  0
  1  5  1  0
  5  6  1  0
  1  7  1  0
  7  8  1  0
  8  9  2  0
  9 10  1  0
 10 11  2  0
 11 12  1  0
 12 13  2  0
 13  8  1  0
  7 14  2  0
M  END
> <Smiles>
P(=O)(OC)(OC)C(c1ccccc1)=O

> <IC50_uM>
0.87096359

> <pIC50>
6.06

> <Activity>
1

$$$$

  SciTegic10102310092D

 10 11  0  0  0  0            999 V2000
    2.5981   -1.5000    0.0000 Cl  0  0
    1.2990   -0.7500    0.0000 C   0  0
    1.2990    0.7500    0.0000 C   0  0
    0.0000    1.5000    0.0000 N   0  0
   -1.2990    0.7500    0.0000 N   0  0
   -1.2990   -0.7500    0.0000 C   0  0
   -2.4133   -1.7530    0.0000 N   0  0
   -1.8032   -3.1233    0.0000 C   0  0
   -0.3114   -2.9665    0.0000 N   0  0
    0.0000   -1.5000    0.0000 C   0  0
  1  2  1  0
  2  3  2  0
  3  4  1  0
  4  5  2  0
  5  6  1  0
  6  7  1  0
  7  8  1  0
  8  9  2  0
  6 10  2  0
 10  2  1  0
 10  9  1  0
M  END
> <Smiles>
Clc1cnnc([nH]cn2)c12

> <IC50_uM>
0.87096359

> <pIC50>
6.06

> <Activity>
1

$$$$

  SciTegic10102310092D

 16 17  0  0  0  0            999 V2000
    2.6003   -1.4977    0.0000 C   0  0
    1.2990   -0.7500    0.0000 C   0  0
    1.2990    0.7500    0.0000 C   0  0
    0.0000    1.5000    0.0000 N   0  0
   -1.2990    0.7500    0.0000 C   0  0
   -2.5981    1.5000    0.0000 C   0  0
   -1.2990   -0.7500    0.0000 C   0  0
   -2.5981   -1.5000    0.0000 O   0  0
   -2.5981   -3.0000    0.0000 C   0  0
   -3.8790   -2.2196    0.0000 C   0  0
   -2.5628   -4.4996    0.0000 C   0  0
   -1.2990   -3.7500    0.0000 O   0  0
    0.0000   -3.0000    0.0000 C   0  0
    0.0000   -1.5000    0.0000 C   0  0
    3.8990   -0.7455    0.0000 C   0  0
    5.1970    0.0064    0.0000 N   0  0
  1  2  1  0
  2  3  2  0
  3  4  1  0
  4  5  2  0
  5  6  1  0
  5  7  1  0
  7  8  1  0
  8  9  1  0
  9 10  1  0
  9 11  1  0
  9 12  1  0
 12 13  1  0
  7 14  2  0
 14  2  1  0
 14 13  1  0
  1 15  1  0
 15 16  3  0
M  END
> <Smiles>
C(c1cnc(C)c(OC(C)(C)OC2)c12)C#N

> <IC50_uM>
0.87096359

> <pIC50>
6.06

> <Activity>
1

$$$$

  SciTegic10102310092D

 16 19  0  0  0  0            999 V2000
    0.0387   -3.4473    0.0000 O   0  0
    0.5000   -2.0200    0.0000 C   0  0
    1.8000   -1.5900    0.0000 C   0  0
    1.6700   -0.3500    0.0000 C   0  0
    0.4300    0.1500    0.0000 C   0  0  3  0  0  0
    0.5200    2.9400    0.0000 C   0  0
    1.0200    1.5600    0.0000 C   0  0  3  0  0  0
    2.3300    1.1100    0.0000 C   0  0
    2.8300    0.0000    0.0000 C   0  0
   -0.3600    0.8000    0.0000 N   0  0  3  0  0  0
   -1.4100    1.8600    0.0000 C   0  0
   -2.8500    1.4900    0.0000 C   0  0
   -3.2500    0.0500    0.0000 C   0  0
   -2.2000   -0.9900    0.0000 C   0  0
   -0.7600   -0.6200    0.0000 C   0  0  3  0  0  0
   -0.3100   -0.9000    0.0000 O   0  0
  1  2  2  0
  2  3  1  0
  3  4  2  0
  4  5  1  0
  5  6  1  4
  7  6  1  4
  7  8  1  0
  8  9  2  0
  9  4  1  0
  7 10  1  0
 10 11  1  4
 11 12  1  0
 12 13  1  0
 13 14  1  0
 10 15  1  0
 15  5  1  0
 15 14  1  4
  5 16  1  0
 16  2  1  0
M  END
> <Smiles>
O=C1C=C2C3(CC(C=C2)N(CCCC4)C34)O1

> <IC50_uM>
0.87096359

> <pIC50>
6.06

> <Activity>
1

$$$$

  SciTegic10102310092D

 14 15  0  0  0  0            999 V2000
    1.2636   -2.2496    0.0000 O   0  0
    1.2990   -0.7500    0.0000 S   0  0
    1.2990    0.7500    0.0000 N   0  0
    0.0000    1.5000    0.0000 C   0  0
   -1.2990    0.7500    0.0000 N   0  0
   -1.2990   -0.7500    0.0000 C   0  0
   -2.4133   -1.7530    0.0000 N   0  0
   -1.8032   -3.1233    0.0000 C   0  0
   -0.3114   -2.9665    0.0000 N   0  0
    0.6924   -4.0811    0.0000 C   0  0
    0.0000   -1.5000    0.0000 C   0  0
   -0.0031    3.0008    0.0000 C   0  0
   -1.3032    3.7490    0.0000 C   0  0
    2.5801    0.0303    0.0000 O   0  0
  1  2  2  0
  2  3  2  0
  3  4  1  0
  4  5  2  0
  5  6  1  0
  6  7  1  0
  7  8  2  0
  8  9  1  0
  9 10  1  0
  6 11  2  0
 11  2  1  0
 11  9  1  0
  4 12  1  0
 12 13  1  0
  2 14  1  0
M  END
> <Smiles>
O=s1(nc(nc(ncn2C)c12)CC)O

> <IC50_uM>
0.87096359

> <pIC50>
6.06

> <Activity>
1

$$$$

  SciTegic10102310092D

 14 14  0  0  0  0            999 V2000
    1.6307   -2.2444    0.0000 S   0  0
    0.7500   -1.0323    0.0000 C   0  0
    1.2135    0.3943    0.0000 N   0  0
    0.0000    1.2760    0.0000 C   0  0
   -1.2135    0.3943    0.0000 N   0  0
   -0.7500   -1.0323    0.0000 C   0  0
   -1.6332   -2.2426    0.0000 N   0  0
   -3.1255   -2.0835    0.0000 C   0  0
   -4.0097   -3.2952    0.0000 O   0  0
    2.6401    0.8578    0.0000 C   0  0
    1.0201   -3.6145    0.0000 O   0  0
    2.5118   -3.4583    0.0000 O   0  0
    3.1234   -2.0885    0.0000 N   0  0
    4.0050   -3.3020    0.0000 C   0  0
  1  2  1  0
  2  3  1  0
  3  4  1  0
  4  5  2  0
  5  6  1  0
  6  2  2  0
  6  7  1  0
  7  8  1  0
  8  9  2  0
  3 10  1  0
  1 11  2  0
  1 12  2  0
  1 13  1  0
 13 14  1  0
M  END
> <Smiles>
S(c1n(cnc1NC=O)C)(=O)(=O)NC

> <IC50_uM>
0.87096359

> <pIC50>
6.06

> <Activity>
1

$$$$

  SciTegic10102310092D

 13 14  0  0  0  0            999 V2000
    3.1476   -0.7184    0.0000 O   0  0
    1.6852   -0.3846    0.0000 C   0  0
    1.3514    1.0778    0.0000 N   0  0
    0.0000    1.7286    0.0000 C   0  0
   -1.3515    1.0777    0.0000 C   0  0
   -1.6852   -0.3847    0.0000 C   0  0  3  0  0  0
   -3.1695   -0.6090    0.0000 C   0  0
   -3.7175   -2.0053    0.0000 C   0  0
   -2.7822   -3.1781    0.0000 C   0  0
   -1.2990   -2.9545    0.0000 C   0  0
   -0.7500   -1.5574    0.0000 N   0  0  3  0  0  0
    0.7500   -1.5574    0.0000 C   0  0
    2.5242    2.0130    0.0000 C   0  0
  1  2  2  0
  2  3  1  0
  3  4  1  0
  4  5  1  0
  6  5  1  4
  6  7  1  0
  7  8  1  0
  8  9  1  0
  9 10  1  0
  6 11  1  0
 11 10  1  4
 11 12  1  0
 12  2  1  0
  3 13  1  0
M  END
> <Smiles>
O=C1N(CCC(CCCC2)N2C1)C

> <IC50_uM>
0.87096359

> <pIC50>
6.06

> <Activity>
1

$$$$

  SciTegic10102310092D

 14 13  0  0  0  0            999 V2000
    5.2000    0.0000    0.0000 C   0  0
    3.9000    0.7500    0.0000 C   0  0
    3.9000    2.2500    0.0000 O   0  0
    2.6000    0.0000    0.0000 O   0  0
    1.3000    0.7500    0.0000 C   0  0
    0.0007    0.0004    0.0000 C   0  0
    6.5000    0.7500    0.0000 C   0  0
    7.7999    0.0000    0.0000 S   0  0
    9.0999    0.7500    0.0000 C   0  0
   10.3999    0.0000    0.0000 C   0  0
   11.6999    0.7500    0.0000 C   0  0
   12.9999    0.0000    0.0000 C   0  0
   12.9999   -1.5000    0.0000 O   0  0
   14.2992    0.7496    0.0000 O   0  0
  1  2  1  0
  2  3  2  0
  2  4  1  0
  4  5  1  0
  5  6  1  0
  1  7  2  0
  7  8  1  0
  8  9  1  0
  9 10  1  0
 10 11  1  0
 11 12  1  0
 12 13  1  0
 12 14  2  0
M  END
> <Smiles>
C(/C(=O)OCC)=C\SCCCC(O)=O

> <IC50_uM>
0.87096359

> <pIC50>
6.06

> <Activity>
1

$$$$

  SciTegic10102310092D

 14 14  0  0  0  0            999 V2000
    2.7771   -1.0106    0.0000 P   0  0
    1.2990   -0.7500    0.0000 C   0  0
    1.2990    0.7500    0.0000 C   0  0
    0.0000    1.5000    0.0000 C   0  0
   -1.2990    0.7500    0.0000 C   0  0
   -1.2990   -0.7500    0.0000 C   0  0
    0.0000   -1.5000    0.0000 C   0  0
    3.2897   -2.4203    0.0000 O   0  0
    3.7425    0.1385    0.0000 N   0  0
    5.2197   -0.1220    0.0000 N   0  0
    3.2299    1.5482    0.0000 C   0  0
    1.7949   -2.1837    0.0000 N   0  0
    2.3086   -3.5930    0.0000 N   0  0
    0.3175   -1.9244    0.0000 C   0  0
  1  2  1  0
  2  3  2  0
  3  4  1  0
  4  5  2  0
  5  6  1  0
  6  7  2  0
  7  2  1  0
  1  8  2  0
  1  9  1  0
  9 10  1  0
  9 11  1  0
  1 12  1  0
 12 13  1  0
 12 14  1  0
M  END
> <Smiles>
P(c1ccccc1)(=O)(N(N)C)N(N)C

> <IC50_uM>
0.87096359

> <pIC50>
6.06

> <Activity>
1

$$$$

  SciTegic10102310092D

 16 17  0  0  0  0            999 V2000
    3.1510   -0.7161    0.0000 C   0  0
    4.1703    0.3856    0.0000 C   0  0
    5.6339    0.0569    0.0000 C   0  0
    6.6503    1.1600    0.0000 C   0  0
    6.2033    2.5918    0.0000 C   0  0
    4.7397    2.9206    0.0000 C   0  0
    3.7233    1.8175    0.0000 C   0  0
    1.6852   -0.3846    0.0000 N   0  0
    1.3514    1.0778    0.0000 C   0  0
    0.0000    1.7286    0.0000 C   0  0
   -1.3515    1.0777    0.0000 C   0  0
   -1.6852   -0.3847    0.0000 C   0  0
   -3.1476   -0.7184    0.0000 O   0  0
   -0.7500   -1.5574    0.0000 N   0  0
    0.7500   -1.5574    0.0000 C   0  0
    1.4008   -2.9088    0.0000 O   0  0
  1  2  1  0
  2  3  2  0
  3  4  1  0
  4  5  2  0
  5  6  1  0
  6  7  2  0
  7  2  1  0
  1  8  1  0
  8  9  1  0
  9 10  1  0
 10 11  1  0
 11 12  1  0
 12 13  2  0
 12 14  1  0
 14 15  1  0
 15  8  1  0
 15 16  2  0
M  END
> <Smiles>
C(c1ccccc1)N2CCCC(=O)NC2=O

> <IC50_uM>
0.87096359

> <pIC50>
6.06

> <Activity>
1

$$$$

  SciTegic10102310092D

 10 11  0  0  0  0            999 V2000
    0.2672   -2.4525    0.0000 C   0  0
    0.7500   -1.0323    0.0000 N   0  3  3  0  0  0
    1.2135    0.3943    0.0000 C   0  0  3  0  0  0
    0.0000    1.2760    0.0000 C   0  0
   -1.2135    0.3943    0.0000 C   0  0
   -0.7500   -1.0323    0.0000 C   0  0
    2.7038    0.3605    0.0000 C   0  0
    3.1533   -1.0706    0.0000 C   0  0
    1.9312   -1.9404    0.0000 C   0  0
    3.6051    1.5595    0.0000 C   0  0
  2  1  1  4
  2  3  1  0
  3  4  1  4
  4  5  1  0
  5  6  1  0
  6  2  1  0
  3  7  1  0
  7  8  1  0
  8  9  1  0
  9  2  1  0
  7 10  2  0
M  CHG  1   2   1
M  END
> <Smiles>
C[N+]12C(CCC1)C(CC2)=C

> <IC50_uM>
0.87096359

> <pIC50>
6.06

> <Activity>
1

$$$$

  SciTegic10102310092D

 16 17  0  0  0  0            999 V2000
    1.6120   -3.9767    0.0000 O   0  0
    2.7343   -2.9815    0.0000 C   0  0
    4.2010   -3.2956    0.0000 N   0  3
    4.9531   -1.9978    0.0000 N   0  0
    3.9511   -0.8815    0.0000 C   0  0
    4.2566    0.5871    0.0000 O   0  0
    2.5987   -1.5004    0.0000 N   0  0
    1.2990   -0.7500    0.0000 C   0  0
    1.2990    0.7500    0.0000 C   0  0
    0.0000    1.5000    0.0000 C   0  0
   -1.2990    0.7500    0.0000 C   0  0
   -1.2990   -0.7500    0.0000 C   0  0
    0.0000   -1.5000    0.0000 C   0  0
    0.0000   -3.0000    0.0000 C   0  0
    3.2993   -4.4944    0.0000 C   0  0
    5.6947   -3.4326    0.0000 C   0  0
  1  2  2  0
  2  3  1  0
  3  4  1  0
  4  5  1  0
  5  6  2  0
  5  7  1  0
  7  2  1  0
  7  8  1  0
  8  9  2  0
  9 10  1  0
 10 11  2  0
 11 12  1  0
 12 13  2  0
  8 13  1  4
 13 14  1  0
  3 15  1  0
  3 16  1  0
M  CHG  1   3   1
M  END
> <Smiles>
O=C1[N+](NC(=O)N1c2ccccc2C)(C)C

> <IC50_uM>
0.87096359

> <pIC50>
6.06

> <Activity>
1

$$$$

  SciTegic10102310092D

 11 12  0  0  0  0            999 V2000
    2.5981   -1.5000    0.0000 O   0  0
    1.2990   -0.7500    0.0000 C   0  0
    1.2990    0.7500    0.0000 N   0  0
    0.0000    1.5000    0.0000 N   0  0
   -1.2990    0.7500    0.0000 C   0  0  3  0  0  0
   -2.5981    1.5000    0.0000 C   0  0
   -3.8971    0.7500    0.0000 C   0  0
   -3.8971   -0.7500    0.0000 C   0  0
   -2.5981   -1.5000    0.0000 C   0  0
   -1.2990   -0.7500    0.0000 C   0  0  3  0  0  0
    0.0000   -1.5000    0.0000 O   0  0
  1  2  2  0
  2  3  1  0
  3  4  1  0
  5  4  1  4
  5  6  1  0
  6  7  1  0
  7  8  1  0
  8  9  1  0
  5 10  1  0
 10  9  1  4
 10 11  1  0
 11  2  1  0
M  END
> <Smiles>
O=C1NNC(CCCC2)C2O1

> <IC50_uM>
0.87096359

> <pIC50>
6.06

> <Activity>
1

$$$$

  SciTegic10102310092D

 12 11  0  0  0  0            999 V2000
    2.6000    0.0000    0.0000 S   0  0
    1.3000    0.7500    0.0000 P   0  0
    1.3000    2.2500    0.0000 O   0  0
    0.0011    1.5002    0.0000 O   0  0
    0.0007    0.0004    0.0000 O   0  0
    3.9000    0.7500    0.0000 C   0  0
    5.2000    0.0000    0.0000 C   0  0
    6.5000    0.7500    0.0000 N   0  0
    7.7999    0.0000    0.0000 C   0  0
    9.0999    0.7500    0.0000 C   0  0
   10.3999    0.0000    0.0000 C   0  0
   11.6992    0.7496    0.0000 N   0  0
  1  2  1  0
  2  3  1  0
  2  4  1  0
  2  5  2  0
  1  6  1  0
  6  7  1  0
  7  8  1  0
  8  9  1  0
  9 10  1  0
 10 11  1  0
 11 12  1  0
M  END
> <Smiles>
S(P(O)(O)=O)CCNCCCN

> <IC50_uM>
0.87096359

> <pIC50>
6.06

> <Activity>
1

$$$$

  SciTegic10102310092D

 16 18  0  0  0  0            999 V2000
    2.3559   -2.5861    0.0000 C   0  0
    3.8432   -2.3851    0.0000 C   0  0
    4.7629   -3.5701    0.0000 C   0  0
    6.2489   -3.3663    0.0000 C   0  0
    6.8155   -1.9774    0.0000 C   0  0
    5.8959   -0.7923    0.0000 C   0  0
    4.4098   -0.9961    0.0000 C   0  0
    1.4440   -1.4074    0.0000 N   0  0
    1.1881    0.0000    0.0000 O   0  0
    0.0000    0.5484    0.0000 C   0  0  3  0  0  0
   -1.5537    0.0000    0.0000 C   0  0
   -1.3709   -1.4257    0.0000 C   0  0
    0.1097   -0.7860    0.0000 C   0  0  3  0  0  0
    0.0000    2.1386    0.0000 C   0  0
    0.3656    1.0236    0.0000 C   0  0
    1.7871   -3.9741    0.0000 O   0  0
  1  2  1  0
  2  3  2  0
  3  4  1  0
  4  5  2  0
  5  6  1  0
  6  7  2  0
  7  2  1  0
  1  8  1  0
  8  9  1  0
 10  9  1  4
 10 11  1  0
 11 12  2  0
 13 12  1  4
 13  8  1  0
 10 14  1  0
 14 15  1  0
 15 13  1  0
  1 16  2  0
M  END
> <Smiles>
C(c1ccccc1)(N2OC(C=CC23)CC3)=O

> <IC50_uM>
0.87096359

> <pIC50>
6.06

> <Activity>
1

$$$$

  SciTegic10102310092D

 12 12  0  0  0  0            999 V2000
    3.1476   -0.7184    0.0000 C   0  0
    1.6852   -0.3846    0.0000 C   0  0
    1.3514    1.0778    0.0000 S   0  0
    0.0000    1.7286    0.0000 O   0  0
   -1.3515    1.0777    0.0000 C   0  0
   -1.6852   -0.3847    0.0000 C   0  0
   -0.7500   -1.5574    0.0000 O   0  0
    0.7500   -1.5574    0.0000 S   0  0
    2.2485   -1.6243    0.0000 O   0  0
   -0.1318   -2.7708    0.0000 O   0  0
    2.7306    0.4879    0.0000 O   0  0
    1.0834    2.5536    0.0000 O   0  0
  1  2  1  0
  2  3  1  0
  3  4  1  0
  4  5  1  0
  5  6  1  0
  6  7  1  0
  7  8  1  0
  8  2  1  0
  8  9  2  0
  8 10  2  0
  3 11  2  0
  3 12  2  0
M  END
> <Smiles>
CC1S(OCCOS1(=O)=O)(=O)=O

> <IC50_uM>
0.87096359

> <pIC50>
6.06

> <Activity>
1

$$$$

  SciTegic10102310092D

 12 12  0  0  0  0            999 V2000
    2.6719    0.7452    0.0000 O   0  0
    1.6852   -0.3846    0.0000 S   0  0
    1.3514    1.0778    0.0000 O   0  0
    0.0000    1.7286    0.0000 C   0  0  3  0  0  0
   -1.3515    1.0777    0.0000 C   0  0
   -1.6852   -0.3847    0.0000 O   0  0
   -0.7500   -1.5574    0.0000 S   0  0
   -2.2485   -1.6244    0.0000 O   0  0
    0.1318   -2.7708    0.0000 O   0  0
    0.7500   -1.5574    0.0000 C   0  0
    0.0000    3.2286    0.0000 C   0  0
    2.0841   -1.8306    0.0000 O   0  0
  1  2  2  0
  2  3  1  0
  3  4  1  0
  4  5  1  0
  5  6  1  0
  6  7  1  0
  7  8  2  0
  7  9  2  0
  7 10  1  0
 10  2  1  0
  4 11  1  4
  2 12  2  0
M  END
> <Smiles>
O=S1(OC(COS(=O)(=O)C1)C)=O

> <IC50_uM>
0.87096359

> <pIC50>
6.06

> <Activity>
1

$$$$

  SciTegic10102310092D

 12 11  0  0  0  0            999 V2000
    3.9000    0.7500    0.0000 N   0  0
    3.8969    2.2508    0.0000 N   0  0
    2.5968    2.9990    0.0000 O   0  0
    2.6000    0.0000    0.0000 C   0  0
    1.3000    0.7500    0.0000 C   0  0
    0.0007    0.0004    0.0000 Cl  0  0
    5.2000    0.0000    0.0000 C   0  0
    5.2000   -1.5000    0.0000 O   0  0
    6.5000    0.7500    0.0000 N   0  0
    7.7999    0.0000    0.0000 C   0  0
    9.0999    0.7500    0.0000 C   0  0
   10.3992    0.0004    0.0000 Cl  0  0
  1  2  1  0
  2  3  2  0
  1  4  1  0
  4  5  1  0
  5  6  1  0
  1  7  1  0
  7  8  2  0
  7  9  1  0
  9 10  1  0
 10 11  1  0
 11 12  1  0
M  END
> <Smiles>
N(N=O)(CCCl)C(=O)NCCCl

> <IC50_uM>
0.87096359

> <pIC50>
6.06

> <Activity>
1

$$$$

  SciTegic10102310092D

 16 18  0  0  0  0            999 V2000
    1.6852   -0.3846    0.0000 N   0  0
    3.1476   -0.7184    0.0000 C   0  0
    1.3514    1.0778    0.0000 C   0  0
    2.5913    1.9239    0.0000 C   0  0
    2.4792    3.4197    0.0000 C   0  0
    1.1278    4.0705    0.0000 C   0  0
   -0.1116    3.2255    0.0000 C   0  0
    0.0000    1.7286    0.0000 C   0  0
   -1.3515    1.0777    0.0000 C   0  0  3  0  0  0
   -2.6395    1.8472    0.0000 C   0  0
   -3.7691    0.8603    0.0000 C   0  0
   -3.1796   -0.5190    0.0000 C   0  0
   -3.9490   -1.8067    0.0000 O   0  0
   -1.6852   -0.3847    0.0000 C   0  0  3  0  0  0
   -0.7500   -1.5574    0.0000 N   0  0
    0.7500   -1.5574    0.0000 C   0  0
  1  2  1  0
  1  3  1  0
  3  4  2  0
  4  5  1  0
  5  6  2  0
  6  7  1  0
  3  8  1  0
  8  7  2  0
  8  9  1  0
  9 10  1  4
 10 11  1  0
 11 12  1  0
 12 13  2  0
  9 14  1  0
 14 12  1  0
 14 15  1  4
 15 16  1  0
 16  1  1  0
M  END
> <Smiles>
N1(C)c(cccc2)c2C(CCC3=O)C3NC1

> <IC50_uM>
0.87096359

> <pIC50>
6.06

> <Activity>
1

$$$$

  SciTegic10102310092D

 16 16  0  0  0  0            999 V2000
    1.2990   -0.7500    0.0000 C   0  0
    2.5973   -1.5031    0.0000 C   0  0  3  0  0  0
    2.5951   -3.0039    0.0000 C   0  0
    3.8933   -3.7570    0.0000 N   0  0
    3.8912   -5.2578    0.0000 C   0  0
    2.5909   -6.0056    0.0000 C   0  0
    5.1887   -6.0105    0.0000 O   0  0
    1.2948   -3.7516    0.0000 O   0  0
    3.8999   -0.7576    0.0000 C   0  0
    3.9051    0.7424    0.0000 C   0  0
    5.1965   -1.5117    0.0000 O   0  0
    1.2990    0.7500    0.0000 C   0  0
    0.0000    1.5000    0.0000 C   0  0
   -1.2990    0.7500    0.0000 C   0  0
   -1.2990   -0.7500    0.0000 C   0  0
    0.0000   -1.5000    0.0000 C   0  0
  2  1  1  4
  2  3  1  0
  3  4  1  0
  4  5  1  0
  5  6  1  0
  5  7  2  0
  3  8  2  0
  2  9  1  0
  9 10  1  0
  9 11  2  0
  1 12  2  0
 12 13  1  0
 13 14  2  0
 14 15  1  0
 15 16  2  0
 16  1  1  0
M  END
> <Smiles>
c1(C(C(NC(C)=O)=O)C(C)=O)ccccc1

> <IC50_uM>
0.87096359

> <pIC50>
6.06

> <Activity>
1

$$$$

  SciTegic10102310092D

 16 18  0  0  0  0            999 V2000
    0.7500   -1.0323    0.0000 C   0  0  3  0  0  0
    1.2135    0.3943    0.0000 C   0  0  3  0  0  0
    0.0000    1.2760    0.0000 C   0  0
    0.0000    2.7767    0.0000 C   0  0
    1.2353    3.6188    0.0000 C   0  0
    1.1224    5.1146    0.0000 C   0  0
   -0.2294    5.7647    0.0000 C   0  0
   -1.4683    4.9191    0.0000 C   0  0
   -1.3554    3.4233    0.0000 C   0  0
   -1.2135    0.3943    0.0000 N   0  0
   -0.7500   -1.0323    0.0000 O   0  0
    2.7115    0.3950    0.0000 C   0  0
    3.5929    1.6087    0.0000 O   0  0
    3.1750   -1.0316    0.0000 N   0  0
    1.9615   -1.9133    0.0000 C   0  0  3  0  0  0
    1.9612   -3.4133    0.0000 O   0  0
  1  2  1  0
  2  3  1  4
  3  4  1  0
  4  5  2  0
  5  6  1  0
  6  7  2  0
  7  8  1  0
  8  9  2  0
  9  4  1  0
  3 10  2  0
 10 11  1  0
  1 11  1  4
  2 12  1  0
 12 13  2  0
 12 14  1  0
 14 15  1  0
 15  1  1  0
 15 16  1  4
M  END
> <Smiles>
C12C(C(c3ccccc3)=NO1)C(=O)NC2O

> <IC50_uM>
0.87096359

> <pIC50>
6.06

> <Activity>
1

$$$$

  SciTegic10102310092D

 15 16  0  0  0  0            999 V2000
    0.7500   -1.0323    0.0000 C   0  0
    1.6317   -2.2458    0.0000 O   0  0
    1.2135    0.3943    0.0000 O   0  0
    0.0000    1.2760    0.0000 C   0  0  3  0  0  0
   -1.3108    2.0053    0.0000 C   0  0
    1.2999    1.9990    0.0000 C   0  0
    2.6000    1.2491    0.0000 O   0  0
    3.8999    1.9993    0.0000 N   0  3
    3.8998    3.4993    0.0000 O   0  5
    5.1993    1.2498    0.0000 O   0  0
   -1.2135    0.3943    0.0000 C   0  0  3  0  0  0
   -2.7115    0.3949    0.0000 C   0  0
   -3.1750   -1.0317    0.0000 C   0  0
   -1.9615   -1.9133    0.0000 C   0  0
   -0.7500   -1.0323    0.0000 N   0  0
  1  2  2  0
  1  3  1  0
  3  4  1  0
  4  5  1  4
  4  6  1  0
  6  7  1  0
  7  8  1  0
  8  9  1  0
  8 10  2  0
  4 11  1  0
 11 12  1  4
 12 13  1  0
 13 14  1  0
 11 15  1  0
 15  1  1  0
 15 14  1  0
M  CHG  2   8   1   9  -1
M  END
> <Smiles>
C1(=O)OC(C)(CO[N+]([O-])=O)C(CCC2)N12

> <IC50_uM>
0.87096359

> <pIC50>
6.06

> <Activity>
1

$$$$

  SciTegic10102310092D

 14 14  0  0  0  0            999 V2000
    1.2990   -0.7500    0.0000 C   0  0
    2.5981   -1.5000    0.0000 C   0  0
    1.2990    0.7500    0.0000 C   0  0
    0.0000    1.5000    0.0000 C   0  0
   -0.0031    3.0008    0.0000 O   0  0
   -1.3039    3.7494    0.0000 C   0  0
   -1.3070    5.2502    0.0000 C   0  0  3  0  0  0
   -2.6078    5.9988    0.0000 C   0  0
   -2.6109    7.4988    0.0000 O   0  0
   -0.0093    6.0025    0.0000 O   0  0
   -1.2990    0.7500    0.0000 C   0  0
   -1.2990   -0.7500    0.0000 C   0  0
    0.0000   -1.5000    0.0000 C   0  0
    0.0000   -3.0000    0.0000 Cl  0  0
  1  2  1  0
  1  3  2  0
  3  4  1  0
  4  5  1  0
  5  6  1  0
  6  7  1  0
  7  8  1  0
  8  9  1  0
  7 10  1  4
  4 11  2  0
 11 12  1  0
 12 13  2  0
 13  1  1  0
 13 14  1  0
M  END
> <Smiles>
c1(C)cc(OCC(CO)O)ccc1Cl

> <IC50_uM>
0.87096359

> <pIC50>
6.06

> <Activity>
1

$$$$

  SciTegic10102310092D

 16 18  0  0  0  0            999 V2000
    1.4649    1.4092    0.0000 C   0  0
    1.4619   -0.0916    0.0000 C   0  0  3  0  0  0
    0.2940   -0.5166    0.0000 N   0  0
    1.0511    0.7988    0.0000 C   0  0
    0.7209    1.7427    0.0000 O   0  0
    3.1395   -0.7100    0.0000 C   0  0  3  0  0  0
    3.8904    0.5883    0.0000 C   0  0
    2.5792    0.1966    0.0000 C   0  0  3  0  0  0
    2.7475   -1.2461    0.0000 C   0  0
    3.5861   -2.2942    0.0000 C   0  0
    0.3892    2.4659    0.0000 C   0  0
    0.7614    3.9190    0.0000 C   0  0
    2.2059    4.3233    0.0000 C   0  0
    3.2782    3.2745    0.0000 C   0  0
    2.9061    1.8214    0.0000 C   0  0
    2.5780    5.7764    0.0000 O   0  0
  2  1  1  4
  2  3  1  0
  3  4  1  0
  4  5  2  0
  2  6  1  0
  6  7  1  4
  8  7  1  4
  8  4  1  0
  8  9  1  0
  6 10  1  0
 10  9  1  0
  1 11  2  0
 11 12  1  0
 12 13  2  0
 13 14  1  0
 14 15  2  0
 15  1  1  0
 13 16  1  0
M  END
> <Smiles>
c1(C(NC2=O)C(CC2C3)C3)ccc(cc1)O

> <IC50_uM>
0.87096359

> <pIC50>
6.06

> <Activity>
1

$$$$

  SciTegic10102310092D

 16 18  0  0  0  0            999 V2000
    0.9488    0.0000    0.0000 C   0  0
    1.8975   -0.8028    0.0000 C   0  0
    1.6421    0.6933    0.0000 C   0  0
    0.0000    0.6568    0.0000 N   0  0  3  0  0  0
   -1.0947    1.4779    0.0000 C   0  0  3  0  0  0
   -2.5947    1.4660    0.0000 C   0  0
   -0.4021    2.8084    0.0000 O   0  0
   -0.8393    0.0000    0.0000 C   0  0  3  0  0  0
   -0.1577   -1.3371    0.0000 C   0  0
   -0.9745   -2.5952    0.0000 C   0  0
   -0.2933   -3.9316    0.0000 C   0  0
    1.2047   -4.0099    0.0000 C   0  0
    2.0214   -2.7517    0.0000 C   0  0
    1.3402   -1.4153    0.0000 C   0  0
   -1.8063   -1.3319    0.0000 C   0  0
   -0.6568   -0.6386    0.0000 C   0  0
  1  2  1  0
  2  3  1  0
  4  3  1  4
  4  5  1  0
  5  6  1  4
  5  7  1  0
  5  8  1  0
  8  1  1  0
  8  9  1  4
  9 10  2  0
 10 11  1  0
 11 12  2  0
 12 13  1  0
 13 14  2  0
 14  9  1  0
  8 15  1  0
  4 16  1  0
 16 15  1  0
M  END
> <Smiles>
C1CCN(C(C)(O)C1(c2ccccc2)C3)C3

> <IC50_uM>
0.87096359

> <pIC50>
6.06

> <Activity>
1

$$$$

  SciTegic10102310092D

 14 13  0  0  0  0            999 V2000
    0.0007    0.0004    0.0000 C   0  0
    1.3000    0.7500    0.0000 O   0  0
    2.6000    0.0000    0.0000 C   0  0
    3.9000    0.7500    0.0000 C   0  0
    5.2000    0.0000    0.0000 C   0  0
    6.5000    0.7500    0.0000 S   0  0
    7.7999    0.0000    0.0000 C   0  0
    9.0999    0.7500    0.0000 C   0  0
   10.3999    0.0000    0.0000 C   0  0
   11.6999    0.7500    0.0000 O   0  0
   12.9999    0.0000    0.0000 C   0  0
   14.2992    0.7496    0.0000 C   0  0
   10.3999   -1.5000    0.0000 O   0  0
    2.6000   -1.5000    0.0000 O   0  0
  1  2  1  0
  2  3  1  0
  3  4  1  0
  4  5  1  0
  5  6  1  0
  6  7  1  0
  7  8  2  0
  8  9  1  0
  9 10  1  0
 10 11  1  0
 11 12  1  0
  9 13  2  0
  3 14  2  0
M  END
> <Smiles>
COC(CCS\C=C\C(OCC)=O)=O

> <IC50_uM>
0.87096359

> <pIC50>
6.06

> <Activity>
1

$$$$

  SciTegic10102310092D

 14 14  0  0  0  0            999 V2000
    1.2990   -0.7500    0.0000 C   0  0
    2.5973   -1.5031    0.0000 N   0  3
    3.8976   -0.7553    0.0000 O   0  5
    2.5951   -3.0031    0.0000 O   0  0
    1.2990    0.7500    0.0000 C   0  0
    2.5988    1.5004    0.0000 S   0  0
    2.5983    3.0004    0.0000 O   0  0
    3.8983    0.7513    0.0000 O   0  0
    3.8975    2.2511    0.0000 O   0  0
    0.0000    1.5000    0.0000 C   0  0
   -1.2990    0.7500    0.0000 C   0  0
   -2.5981    1.5000    0.0000 N   0  0
   -1.2990   -0.7500    0.0000 C   0  0
    0.0000   -1.5000    0.0000 C   0  0
  1  2  1  0
  2  3  1  0
  2  4  2  0
  1  5  2  0
  5  6  1  0
  6  7  1  0
  6  8  2  0
  6  9  2  0
  5 10  1  0
 10 11  2  0
 11 12  1  0
 11 13  1  0
 13 14  2  0
 14  1  1  0
M  CHG  2   2   1   3  -1
M  END
> <Smiles>
c1([N+]([O-])=O)c(S(O)(=O)=O)cc(N)cc1

> <IC50_uM>
0.87096359

> <pIC50>
6.06

> <Activity>
1

$$$$

  SciTegic10102310092D

 14 14  0  0  0  0            999 V2000
    1.2990   -0.7500    0.0000 C   0  0
    1.2990    0.7500    0.0000 C   0  0
    2.5988    1.5004    0.0000 S   0  0
    2.5983    3.0004    0.0000 O   0  0
    3.8983    0.7513    0.0000 O   0  0
    3.8975    2.2511    0.0000 O   0  0
    0.0000    1.5000    0.0000 C   0  0
   -1.2990    0.7500    0.0000 C   0  0
   -1.2990   -0.7500    0.0000 C   0  0
   -2.5981   -1.5000    0.0000 N   0  0
    0.0000   -1.5000    0.0000 C   0  0
    0.0031   -3.0008    0.0000 N   0  3
   -1.2946   -3.7531    0.0000 O   0  5
    1.3032   -3.7490    0.0000 O   0  0
  1  2  2  0
  2  3  1  0
  3  4  1  0
  3  5  2  0
  3  6  2  0
  2  7  1  0
  7  8  2  0
  8  9  1  0
  9 10  1  0
  9 11  2  0
 11  1  1  0
 11 12  1  0
 12 13  1  0
 12 14  2  0
M  CHG  2  12   1  13  -1
M  END
> <Smiles>
c1c(S(O)(=O)=O)ccc(N)c1[N+]([O-])=O

> <IC50_uM>
0.87096359

> <pIC50>
6.06

> <Activity>
1

$$$$

  SciTegic10102310092D

 16 17  0  0  0  0            999 V2000
    1.2990   -0.7500    0.0000 C   0  0
    1.2990    0.7500    0.0000 C   0  0
    0.0000    1.5000    0.0000 C   0  0
   -1.2990    0.7500    0.0000 C   0  0
   -2.5981    1.5000    0.0000 C   0  0
   -1.2990   -0.7500    0.0000 C   0  0
    0.0000   -1.5000    0.0000 C   0  0
    2.5981    1.5000    0.0000 C   0  0
    2.6012    3.0008    0.0000 C   0  0
    3.9020    3.7494    0.0000 C   0  0
    5.1997    2.9972    0.0000 O   0  0
    3.9051    5.2494    0.0000 O   0  0
    3.8971    0.7500    0.0000 C   0  0
    3.8971   -0.7500    0.0000 C   0  0
    5.1962   -1.5000    0.0000 O   0  0
    2.5981   -1.5000    0.0000 O   0  0
  1  2  2  0
  2  3  1  0
  3  4  2  0
  4  5  1  0
  4  6  1  0
  6  7  2  0
  7  1  1  0
  2  8  1  0
  8  9  1  0
  9 10  1  0
 10 11  1  0
 10 12  2  0
  8 13  2  0
 13 14  1  0
 14 15  2  0
 14 16  1  0
 16  1  1  0
M  END
> <Smiles>
c12c(cc(C)cc1)C(CC(O)=O)=CC(=O)O2

> <IC50_uM>
0.87096359

> <pIC50>
6.06

> <Activity>
1

$$$$

  SciTegic10102310092D

 16 18  0  0  0  0            999 V2000
    0.3114   -2.9665    0.0000 N   0  0
   -0.6928   -4.0817    0.0000 C   0  0  3  0  0  0
   -0.4810   -5.5489    0.0000 C   0  0
   -1.8348   -6.1949    0.0000 C   0  0
   -2.1519   -3.7886    0.0000 C   0  0
   -2.8675   -5.1069    0.0000 C   0  0
   -4.3546   -5.3029    0.0000 O   0  0
    1.8032   -3.1233    0.0000 C   0  0
    2.4133   -1.7530    0.0000 N   0  0
    1.2990   -0.7500    0.0000 C   0  0
    1.2990    0.7500    0.0000 C   0  0
    2.5981    1.5000    0.0000 N   0  0
    0.0000    1.5000    0.0000 N   0  0
   -1.2990    0.7500    0.0000 C   0  0
   -1.2990   -0.7500    0.0000 N   0  0
    0.0000   -1.5000    0.0000 C   0  0
  2  1  1  4
  2  3  1  0
  3  4  1  0
  2  5  1  0
  5  6  1  0
  6  4  1  0
  6  7  2  0
  1  8  1  0
  8  9  2  0
  9 10  1  0
 10 11  2  0
 11 12  1  0
 11 13  1  0
 13 14  2  0
 14 15  1  0
 10 16  1  0
 16  1  1  0
 16 15  2  0
M  END
> <Smiles>
n1(C(CC2)CC2=O)cnc(c(N)ncn3)c13

> <IC50_uM>
0.87096359

> <pIC50>
6.06

> <Activity>
1

$$$$

  SciTegic10102310092D

 12 12  0  0  0  0            999 V2000
    1.2990   -0.7500    0.0000 C   0  0
    2.5973   -1.5031    0.0000 C   0  0
    3.8976   -0.7553    0.0000 O   0  0
    2.5951   -3.0031    0.0000 O   0  0
    1.2990    0.7500    0.0000 N   0  0
    0.0000    1.5000    0.0000 N   0  0
   -1.2990    0.7500    0.0000 C   0  0
   -2.6003    1.4977    0.0000 C   0  0
   -2.6030    2.9977    0.0000 O   0  0
   -3.8983    0.7459    0.0000 O   0  0
   -1.2990   -0.7500    0.0000 C   0  0
    0.0000   -1.5000    0.0000 N   0  0
  1  2  1  0
  2  3  1  0
  2  4  2  0
  1  5  2  0
  5  6  1  0
  6  7  1  0
  7  8  1  0
  8  9  1  0
  8 10  2  0
  7 11  2  0
 11 12  1  0
 12  1  1  0
M  END
> <Smiles>
C1(C(O)=O)=NNC(C(O)=O)=CN1

> <IC50_uM>
0.87096359

> <pIC50>
6.06

> <Activity>
1

$$$$

  SciTegic10102310092D

 16 17  0  0  0  0            999 V2000
    2.5951   -3.0039    0.0000 C   0  0
    2.5973   -1.5031    0.0000 C   0  0
    1.2990   -0.7500    0.0000 C   0  0
    1.2990    0.7500    0.0000 C   0  0
    0.0000    1.5000    0.0000 C   0  0
   -1.2990    0.7500    0.0000 C   0  0
   -1.2990   -0.7500    0.0000 C   0  0
    0.0000   -1.5000    0.0000 C   0  0
    3.8976   -0.7553    0.0000 O   0  0
    3.8915   -3.7585    0.0000 C   0  0
    3.8864   -5.2585    0.0000 N   0  0
    5.1828   -6.0130    0.0000 C   0  0
    2.5847   -6.0040    0.0000 C   0  0
    2.5795   -7.5040    0.0000 O   0  0
    1.2883   -5.2495    0.0000 C   0  0
    1.2935   -3.7495    0.0000 C   0  0
  1  2  1  0
  2  3  1  0
  3  4  1  0
  4  5  1  0
  5  6  1  0
  6  7  1  0
  3  8  1  0
  8  7  1  0
  2  9  2  0
  1 10  2  0
 10 11  1  0
 11 12  1  0
 11 13  1  0
 13 14  2  0
 13 15  1  0
 15 16  2  0
 16  1  1  0
M  END
> <Smiles>
C1(C(C(CCCC2)C2)=O)=CN(C)C(=O)C=C1

> <IC50_uM>
0.87096359

> <pIC50>
6.06

> <Activity>
1

$$$$

  SciTegic10102310092D

 16 17  0  0  0  0            999 V2000
    1.2990   -0.7500    0.0000 C   0  0
    1.2990    0.7500    0.0000 C   0  0
    2.5987    1.5004    0.0000 C   0  0
    3.9511    0.8815    0.0000 N   0  0
    4.9530    1.9978    0.0000 C   0  0
    5.5447    0.6195    0.0000 C   0  0
    5.8147    3.2257    0.0000 C   0  0
    4.2010    3.2957    0.0000 C   0  0
    2.7342    2.9815    0.0000 O   0  0
    0.0000    1.5000    0.0000 C   0  0
   -0.0031    3.0008    0.0000 C   0  0
   -1.3039    3.7494    0.0000 N   0  0
   -1.3070    5.2494    0.0000 O   0  0
   -1.2990    0.7500    0.0000 N   0  0
   -1.2990   -0.7500    0.0000 C   0  0
    0.0000   -1.5000    0.0000 C   0  0
  1  2  2  0
  2  3  1  0
  3  4  2  0
  4  5  1  0
  5  6  1  0
  5  7  1  0
  5  8  1  0
  8  9  1  0
  9  3  1  0
  2 10  1  0
 10 11  1  0
 11 12  2  0
 12 13  1  0
 10 14  2  0
 14 15  1  0
 15 16  2  0
 16  1  1  0
M  END
> <Smiles>
c1c(C2=NC(C)(C)CO2)c(\C=N\O)ncc1

> <IC50_uM>
0.87096359

> <pIC50>
6.06

> <Activity>
1

$$$$

  SciTegic10102310092D

 35 38  0  0  0  0            999 V2000
    2.5981   -1.5000    0.0000 C   0  0
    1.2990   -0.7500    0.0000 C   0  0
    1.2990    0.7500    0.0000 C   0  0
    0.0000    1.5000    0.0000 C   0  0
    0.0000    3.0008    0.0000 C   0  0
    0.0000    4.5008    0.0000 N   0  0
   -1.2990    0.7500    0.0000 C   0  0
   -1.2990   -0.7500    0.0000 C   0  0
   -2.5981   -1.5000    0.0000 C   0  0
    0.0000   -1.5000    0.0000 C   0  0
    0.0031   -3.0008    0.0000 O   0  0
    1.3039   -3.7494    0.0000 C   0  0
    2.6005   -2.9949    0.0000 N   0  0
    3.9021   -3.7404    0.0000 C   0  0
    5.2008   -2.9882    0.0000 N   0  0
    6.5021   -3.7360    0.0000 C   0  0
    7.8012   -2.9860    0.0000 C   0  0
    9.1002   -3.7360    0.0000 C   0  0
    9.1002   -5.2360    0.0000 N   0  0
   10.3999   -5.9864    0.0000 C   0  0
   10.3976   -7.4865    0.0000 C   0  0
   11.6955   -8.2385    0.0000 C   0  0
   11.6962   -9.7394    0.0000 C   0  0
   10.3972  -10.4896    0.0000 N   0  0
   12.9951  -10.4896    0.0000 O   0  0
   12.9957   -7.4906    0.0000 C   0  0
   12.9981   -5.9906    0.0000 C   0  0
   11.7002   -5.2385    0.0000 C   0  0
   11.7026   -3.7385    0.0000 Cl  0  0
    7.8012   -5.9860    0.0000 C   0  0
    6.5021   -5.2360    0.0000 C   0  0
    3.9073   -5.2404    0.0000 N   0  0
    2.6108   -5.9949    0.0000 C   0  0
    1.3092   -5.2494    0.0000 C   0  0
    0.0128   -6.0039    0.0000 Br  0  0
  1  2  1  0
  2  3  2  0
  3  4  1  0
  4  5  1  0
  5  6  3  0
  4  7  2  0
  7  8  1  0
  8  9  1  0
  8 10  2  0
 10  2  1  0
 10 11  1  0
 11 12  1  0
 12 13  2  0
 13 14  1  0
 14 15  1  0
 15 16  1  0
 16 17  1  0
 17 18  1  0
 18 19  1  0
 19 20  1  0
 20 21  2  0
 21 22  1  0
 22 23  1  0
 23 24  1  0
 23 25  2  0
 22 26  2  0
 26 27  1  0
 27 28  2  0
 28 20  1  0
 28 29  1  0
 19 30  1  0
 30 31  1  0
 31 16  1  0
 14 32  2  0
 32 33  1  0
 33 34  2  0
 34 12  1  0
 34 35  1  0
M  END
> <Smiles>
Cc1cc(C#N)cc(C)c1Oc1nc(NC2CCN(c3cc(C(N)=O)ccc3Cl)CC2)ncc1Br

> <IC50_uM>
0.874

> <pIC50>
6.058488567

> <Activity>
1

$$$$

  SciTegic10102310092D

 31 34  0  0  0  0            999 V2000
    3.8978   -2.2504    0.0000 N   0  0
    2.5988   -1.5004    0.0000 C   0  0
    1.2990   -0.7500    0.0000 C   0  0
    1.2990    0.7500    0.0000 C   0  0
    0.0000    1.5000    0.0000 C   0  0
   -1.2990    0.7500    0.0000 C   0  0
   -2.5981    1.5000    0.0000 C   0  0
   -2.5981    3.0000    0.0000 Cl  0  0
   -3.8971    0.7500    0.0000 C   0  0
   -3.8971   -0.7500    0.0000 C   0  0
   -5.1953   -1.5031    0.0000 O   0  0
   -5.1932   -3.0039    0.0000 C   0  0
   -3.8915   -3.7495    0.0000 C   0  0
   -3.8863   -5.2495    0.0000 C   0  0
   -5.1828   -6.0040    0.0000 C   0  0
   -6.4844   -5.2585    0.0000 C   0  0
   -6.4896   -3.7585    0.0000 C   0  0
   -7.7935   -3.0153    0.0000 O   0  0
   -9.0895   -3.7721    0.0000 C   0  0
  -10.3934   -3.0290    0.0000 C   0  0
  -11.6895   -3.7858    0.0000 N   0  0
  -11.6791   -5.2858    0.0000 C   0  0
  -12.9729   -6.0448    0.0000 C   0  0
  -14.2771   -5.3039    0.0000 C   0  0
  -15.5709   -6.0629    0.0000 O   0  0
  -14.2876   -3.8039    0.0000 N   0  0
  -12.9938   -3.0449    0.0000 C   0  0
  -13.0043   -1.5449    0.0000 O   0  0
   -2.5981   -1.5000    0.0000 C   0  0
   -1.2990   -0.7500    0.0000 C   0  0
    0.0000   -1.5000    0.0000 C   0  0
  1  2  3  0
  2  3  1  0
  3  4  2  0
  4  5  1  0
  5  6  2  0
  6  7  1  0
  7  8  1  0
  7  9  2  0
  9 10  1  0
 10 11  1  0
 11 12  1  0
 12 13  2  0
 13 14  1  0
 14 15  2  0
 15 16  1  0
 16 17  2  0
 17 12  1  0
 17 18  1  0
 18 19  1  0
 19 20  1  0
 20 21  1  0
 21 22  1  0
 22 23  2  0
 23 24  1  0
 24 25  2  0
 24 26  1  0
 26 27  1  0
 27 21  1  0
 27 28  2  0
 10 29  2  0
 29 30  1  0
 30  6  1  0
 30 31  2  0
 31  3  1  0
M  END
> <Smiles>
N#Cc1ccc2c(Cl)cc(Oc3ccccc3OCCn3ccc(=O)[nH]c3=O)cc2c1

> <IC50_uM>
0.89

> <pIC50>
6.050609993

> <Activity>
1

$$$$

  SciTegic10102310092D

 25 27  0  0  0  0            999 V2000
   -0.6923   -4.0811    0.0000 C   0  0
    0.3114   -2.9665    0.0000 C   0  0
    1.8032   -3.1233    0.0000 N   0  0
    2.4133   -1.7530    0.0000 C   0  0
    3.8794   -1.4442    0.0000 C   0  0
    4.8823   -2.5608    0.0000 C   0  0
    6.3509   -2.2515    0.0000 C   0  0
    7.3538   -3.3681    0.0000 C   0  0
    8.8224   -3.0588    0.0000 C   0  0
    9.8253   -4.1753    0.0000 C   0  0
   11.2939   -3.8660    0.0000 C   0  0
   11.7596   -2.4402    0.0000 O   0  0
   12.2967   -4.9826    0.0000 C   0  0
   13.7650   -4.6756    0.0000 C   0  0
   14.7651   -5.7936    0.0000 C   0  0
   14.2969   -7.2187    0.0000 C   0  0
   12.8286   -7.5258    0.0000 C   0  0
   11.8286   -6.4078    0.0000 C   0  0
    1.2990   -0.7500    0.0000 N   0  0
    1.2990    0.7500    0.0000 N   0  0
    0.0000    1.5000    0.0000 C   0  0
    0.0000    3.0000    0.0000 N   0  0
   -1.2990    0.7500    0.0000 C   0  0
   -1.2990   -0.7500    0.0000 C   0  0
    0.0000   -1.5000    0.0000 C   0  0
  1  2  1  0
  2  3  1  0
  3  4  2  0
  4  5  1  0
  5  6  1  0
  6  7  1  0
  7  8  1  0
  8  9  1  0
  9 10  1  0
 10 11  1  0
 11 12  2  0
 11 13  1  0
 13 14  2  0
 14 15  1  0
 15 16  2  0
 16 17  1  0
 17 18  2  0
 18 13  1  0
  4 19  1  0
 19 20  1  0
 20 21  2  0
 21 22  1  0
 21 23  1  0
 23 24  2  0
 24 25  1  0
 25  2  2  0
 25 19  1  0
M  END
> <Smiles>
Cc1nc(CCCCCCC(=O)c2ccccc2)n2nc(N)ccc12

> <IC50_uM>
0.89

> <pIC50>
6.050609993

> <Activity>
1

$$$$

  SciTegic10102310092D

 15 16  0  0  0  0            999 V2000
    2.5981   -1.5000    0.0000 O   0  0
    1.2990   -0.7500    0.0000 C   0  0
    1.2990    0.7500    0.0000 C   0  0
    0.0000    1.5000    0.0000 C   0  0
   -1.2990    0.7500    0.0000 C   0  0
   -2.5981    1.5000    0.0000 O   0  0
   -1.2990   -0.7500    0.0000 N   0  0
    0.0000   -1.5000    0.0000 N   0  0
    0.0000   -3.0008    0.0000 C   0  0
   -1.2978   -3.7529    0.0000 C   0  0
   -1.2955   -5.2529    0.0000 C   0  0
    0.0048   -6.0009    0.0000 C   0  0
    1.3026   -5.2488    0.0000 C   0  0
    1.3002   -3.7488    0.0000 C   0  0
    2.5981    1.5000    0.0000 Cl  0  0
  1  2  2  0
  2  3  1  0
  3  4  2  0
  4  5  1  0
  5  6  2  0
  5  7  1  0
  7  8  1  0
  8  2  1  0
  8  9  1  0
  9 10  2  0
 10 11  1  0
 11 12  2  0
 12 13  1  0
 13 14  2  0
 14  9  1  0
  3 15  1  0
M  END
> <Smiles>
O=C1C(=CC(=O)NN1c2ccccc2)Cl

> <IC50_uM>
0.891250938

> <pIC50>
6.05

> <Activity>
1

$$$$

  SciTegic10102310092D

  6  5  0  0  0  0            999 V2000
    1.3000    0.7500    0.0000 S   0  0
    0.0007    0.0004    0.0000 O   0  0
    1.3000    2.2500    0.0000 O   0  0
    0.0011    1.5002    0.0000 C   0  0
    2.6000    0.0000    0.0000 S   0  0
    3.8993    0.7496    0.0000 C   0  0
  1  2  2  0
  1  3  2  0
  1  4  1  0
  1  5  1  0
  5  6  1  0
M  END
> <Smiles>
S(=O)(=O)(C)SC

> <IC50_uM>
0.891250938

> <pIC50>
6.05

> <Activity>
1

$$$$

  SciTegic10102310092D

 15 16  0  0  0  0            999 V2000
    2.5973   -1.5031    0.0000 C   0  0
    1.2990   -0.7500    0.0000 C   0  0  3  0  0  0
    1.2990    0.7500    0.0000 C   0  0
    0.0000    1.5000    0.0000 N   0  0
   -1.2990    0.7500    0.0000 C   0  0
   -2.5981    1.5000    0.0000 C   0  0
   -3.8971    0.7500    0.0000 C   0  0
   -3.8971   -0.7500    0.0000 C   0  0
   -2.5981   -1.5000    0.0000 C   0  0
   -1.2990   -0.7500    0.0000 C   0  0
    0.0000   -1.5000    0.0000 S   0  0
    2.5981    1.5000    0.0000 O   0  0
    2.5951   -3.0039    0.0000 C   0  0
    1.2948   -3.7516    0.0000 O   0  0
    3.8926   -3.7566    0.0000 O   0  0
  2  1  1  4
  2  3  1  0
  3  4  1  0
  4  5  1  0
  5  6  2  0
  6  7  1  0
  7  8  2  0
  8  9  1  0
  5 10  1  0
 10  9  2  0
 10 11  1  0
 11  2  1  0
  3 12  2  0
  1 13  1  0
 13 14  1  0
 13 15  2  0
M  END
> <Smiles>
C(C1C(Nc(cccc2)c2S1)=O)C(O)=O

> <IC50_uM>
0.891250938

> <pIC50>
6.05

> <Activity>
1

$$$$

  SciTegic10102310092D

 14 15  0  0  0  0            999 V2000
    2.5959   -3.0016    0.0000 C   0  0
    2.5991   -1.5008    0.0000 C   0  0
    1.2990   -0.7500    0.0000 C   0  0
    1.2990    0.7500    0.0000 C   0  0
    0.0000    1.5000    0.0000 C   0  0
   -1.2990    0.7500    0.0000 C   0  0
   -1.2990   -0.7500    0.0000 C   0  0
    0.0000   -1.5000    0.0000 C   0  0
    2.5647   -0.0215    0.0000 C   0  0
    3.8646    0.7271    0.0000 C   0  0
    5.1628   -0.0243    0.0000 N   0  0
    5.1612   -1.5243    0.0000 C   0  0
    3.8613   -2.2729    0.0000 C   0  0
    2.5928   -4.5016    0.0000 N   0  0
  1  2  1  0
  2  3  1  0
  3  4  2  0
  4  5  1  0
  5  6  2  0
  6  7  1  0
  7  8  2  0
  8  3  1  0
  2  9  1  0
  9 10  1  0
 10 11  1  0
 11 12  1  0
 12 13  1  0
 13  2  1  0
  1 14  3  0
M  END
> <Smiles>
C(C1(c2ccccc2)CCNCC1)#N

> <IC50_uM>
0.891250938

> <pIC50>
6.05

> <Activity>
1

$$$$

  SciTegic10102310092D

 16 18  0  0  0  0            999 V2000
    5.1047    0.0031    0.0000 C   0  0
    3.6065    0.0000    0.0000 C   0  0
    2.7248   -1.2135    0.0000 C   0  0
    3.1884   -2.6409    0.0000 C   0  0
    4.1857   -3.6484    0.0000 C   0  0
    2.7234   -3.9824    0.0000 C   0  0
    1.2990   -0.7500    0.0000 N   0  0
    1.2990    0.7500    0.0000 N   0  0
    0.0000    1.5000    0.0000 C   0  0
   -1.2990    0.7500    0.0000 C   0  0
   -1.2990   -0.7500    0.0000 C   0  0
    0.0000   -1.5000    0.0000 C   0  0
    2.7248    1.2135    0.0000 C   0  0
    3.1882    2.6402    0.0000 O   0  0
    5.8532    1.3040    0.0000 C   0  0
    7.3532    1.3071    0.0000 O   0  0
  1  2  1  0
  2  3  2  0
  3  4  1  0
  4  5  1  0
  5  6  1  0
  6  4  1  0
  3  7  1  0
  7  8  1  0
  8  9  1  0
  9 10  1  0
 10 11  1  0
 11 12  1  0
 12  7  1  0
  8 13  1  0
 13  2  1  0
 13 14  2  0
  1 15  1  0
 15 16  1  0
M  END
> <Smiles>
C(C1=C(C2CC2)N3N(CCCC3)C1=O)CO

> <IC50_uM>
0.891250938

> <pIC50>
6.05

> <Activity>
1

$$$$

  SciTegic10102310092D

 16 18  0  0  0  0            999 V2000
    1.2074    2.3592    0.0000 C   0  0
   -0.1400    1.7000    0.0000 C   0  0
   -1.3900    1.0200    0.0000 O   0  0
   -1.3900   -0.3400    0.0000 C   0  0
   -0.1100   -0.8500    0.0000 C   0  0  3  0  0  0
   -0.5600   -2.1800    0.0000 C   0  0  3  0  0  0
   -1.6955   -3.1484    0.0000 C   0  0
   -3.1091   -2.6465    0.0000 O   0  0
   -1.4239   -4.6236    0.0000 O   0  0
    1.2600   -0.6000    0.0000 C   0  0  3  0  0  0
    1.0500    0.9000    0.0000 C   0  0  3  0  0  0
    0.7700   -1.9600    0.0000 C   0  0  3  0  0  0
    1.7400   -2.9500    0.0000 C   0  0
    2.2500   -1.5900    0.0000 C   0  0
   -2.6315   -1.1818    0.0000 O   0  0
   -1.4198    2.4824    0.0000 C   0  0
  1  2  1  0
  2  3  1  0
  3  4  1  0
  5  4  1  4
  5  6  1  0
  6  7  1  4
  7  8  1  0
  7  9  2  0
  5 10  1  0
 10 11  1  0
 11  2  1  4
 11 12  1  0
 12  6  1  0
 12 13  1  4
 13 14  2  0
 10 14  1  4
  4 15  2  0
  2 16  1  0
M  END
> <Smiles>
CC1(OC(C(C2C(O)=O)C3C1C2C=C3)=O)C

> <IC50_uM>
0.891250938

> <pIC50>
6.05

> <Activity>
1

$$$$

  SciTegic10102310092D

 10 11  0  0  0  0            999 V2000
    0.2672   -2.4525    0.0000 C   0  0
    0.7500   -1.0323    0.0000 N   0  3  3  0  0  0
    1.2135    0.3943    0.0000 C   0  0  3  0  0  0
    0.0000    1.2760    0.0000 C   0  0
   -1.2135    0.3943    0.0000 C   0  0
   -0.7500   -1.0323    0.0000 C   0  0
    2.7038    0.3605    0.0000 C   0  0  3  0  0  0
    3.1533   -1.0706    0.0000 C   0  0
    1.9312   -1.9404    0.0000 C   0  0
    3.6051    1.5595    0.0000 C   0  0
  2  1  1  4
  2  3  1  0
  3  4  1  4
  4  5  1  0
  5  6  1  0
  6  2  1  0
  3  7  1  0
  7  8  1  0
  8  9  1  0
  9  2  1  0
  7 10  1  4
M  CHG  1   2   1
M  END
> <Smiles>
C[N+]12C(CCC1)C(CC2)C

> <IC50_uM>
0.891250938

> <pIC50>
6.05

> <Activity>
1

$$$$

  SciTegic10102310092D

 15 16  0  0  0  0            999 V2000
    2.4139   -3.8545    0.0000 C   0  0
    2.5278   -2.3606    0.0000 C   0  0
    3.8068   -1.5768    0.0000 C   0  0
    3.4566   -0.1183    0.0000 S   0  0
    1.9598    0.0000    0.0000 C   0  0
    1.3858    1.3858    0.0000 C   0  0
    0.0000    1.9598    0.0000 C   0  0
   -1.3858    1.3858    0.0000 C   0  0
   -1.9598    0.0000    0.0000 C   0  0
   -1.3858   -1.3858    0.0000 C   0  0
   -2.4465   -2.4465    0.0000 O   0  0
    0.0000   -1.9598    0.0000 N   0  0
    1.3858   -1.3858    0.0000 C   0  0
    1.0614   -4.5031    0.0000 O   0  0
    3.6516   -4.7019    0.0000 O   0  0
  1  2  1  0
  2  3  2  0
  3  4  1  0
  4  5  1  0
  5  6  1  0
  6  7  1  0
  7  8  1  0
  8  9  1  0
  9 10  1  0
 10 11  2  0
 10 12  1  0
  5 13  2  0
 13  2  1  0
 13 12  1  0
  1 14  1  0
  1 15  2  0
M  END
> <Smiles>
C(c1csc(CCCCC(=O)N2)c12)(O)=O

> <IC50_uM>
0.891250938

> <pIC50>
6.05

> <Activity>
1

$$$$

  SciTegic10102310092D

 14 13  0  0  0  0            999 V2000
    3.9000    0.7500    0.0000 C   0  0  3  0  0  0
    3.8969    2.2508    0.0000 C   0  0
    5.1946    3.0031    0.0000 O   0  0
    2.5968    2.9990    0.0000 O   0  0
    2.6000    0.0000    0.0000 N   0  0
    1.3000    0.7500    0.0000 C   0  0
    0.0007    0.0004    0.0000 O   0  0
    1.3000    2.2500    0.0000 C   0  0
    5.2000    0.0000    0.0000 C   0  0
    6.4989   -0.7502    0.0000 C   0  0
    5.2000   -1.5000    0.0000 C   0  0
    6.5000    0.7500    0.0000 S   0  0
    7.7999    0.0000    0.0000 N   0  0
    9.0992    0.7496    0.0000 O   0  0
  1  2  1  0
  2  3  1  0
  2  4  2  0
  1  5  1  4
  5  6  1  0
  6  7  2  0
  6  8  1  0
  1  9  1  0
  9 10  1  0
  9 11  1  0
  9 12  1  0
 12 13  1  0
 13 14  2  0
M  END
> <Smiles>
C(C(O)=O)(NC(=O)C)C(C)(C)SN=O

> <IC50_uM>
0.891250938

> <pIC50>
6.05

> <Activity>
1

$$$$

  SciTegic10102310092D

 16 18  0  0  0  0            999 V2000
    2.6003   -1.4977    0.0000 O   0  0
    1.2990   -0.7500    0.0000 C   0  0
    1.2990    0.7500    0.0000 C   0  0
    0.0000    1.5000    0.0000 C   0  0
   -1.2990    0.7500    0.0000 C   0  0
   -1.2990   -0.7500    0.0000 C   0  0
    0.0000   -1.5000    0.0000 C   0  0
   -0.0031   -3.0008    0.0000 O   0  0
   -1.3039   -3.7494    0.0000 C   0  0
   -1.3070   -5.2502    0.0000 C   0  0  3  0  0  0
   -2.0569   -6.4579    0.0000 O   0  0
   -0.5569   -6.4578    0.0000 C   0  0
    3.8990   -0.7455    0.0000 C   0  0
    5.2003   -1.4932    0.0000 C   0  0  3  0  0  0
    6.6212   -1.4476    0.0000 O   0  0
    5.8711   -2.7466    0.0000 C   0  0
  1  2  1  0
  2  3  2  0
  3  4  1  0
  4  5  2  0
  5  6  1  0
  6  7  2  0
  7  2  1  0
  7  8  1  0
  8  9  1  0
 10  9  1  4
 10 11  1  0
 11 12  1  0
 12 10  1  0
  1 13  1  0
 14 13  1  4
 14 15  1  0
 15 16  1  0
 16 14  1  0
M  END
> <Smiles>
O(c1ccccc1OCC2OC2)CC3OC3

> <IC50_uM>
0.891250938

> <pIC50>
6.05

> <Activity>
1

$$$$

  SciTegic10102310092D

 14 15  0  0  0  0            999 V2000
    2.5981   -1.5000    0.0000 N   0  0
    1.2990   -0.7500    0.0000 C   0  0
    1.2990    0.7500    0.0000 C   0  0
    0.0000    1.5000    0.0000 N   0  0
   -1.2990    0.7500    0.0000 C   0  0
   -2.5981    1.5000    0.0000 O   0  0
   -1.2990   -0.7500    0.0000 C   0  0
   -2.5981   -1.5000    0.0000 C   0  0
   -2.5981   -3.0000    0.0000 C   0  0
   -1.2990   -3.7500    0.0000 C   0  0
    0.0000   -3.0000    0.0000 C   0  0
    0.0000   -1.5000    0.0000 C   0  0
    0.0000    3.0000    0.0000 C   0  0
    2.5981    1.5000    0.0000 C   0  0
  1  2  1  0
  2  3  2  0
  3  4  1  0
  4  5  1  0
  5  6  2  0
  5  7  1  0
  7  8  2  0
  8  9  1  0
  9 10  2  0
 10 11  1  0
  7 12  1  0
 12  2  1  0
 12 11  2  0
  4 13  1  0
  3 14  1  0
M  END
> <Smiles>
NC1=C(N(C(=O)c(cccc2)c12)C)C

> <IC50_uM>
0.891250938

> <pIC50>
6.05

> <Activity>
1

$$$$

  SciTegic10102310092D

 16 18  0  0  0  0            999 V2000
    0.1701   -1.9377    0.0000 O   0  0
    1.6700   -1.9200    0.0000 C   0  0  3  0  0  0
    0.5000   -1.0400    0.0000 C   0  0  3  0  0  0
   -0.8900   -1.9200    0.0000 C   0  0  3  0  0  0
   -0.4200   -3.3100    0.0000 C   0  0
    1.3200   -3.3100    0.0000 C   0  0
   -2.1900   -0.9700    0.0000 C   0  0  3  0  0  0
   -2.1900    0.7000    0.0000 O   0  0
   -0.8900    1.5800    0.0000 C   0  0
   -0.9263    3.0778    0.0000 C   0  0
    0.3534    3.8603    0.0000 O   0  0
   -2.2436    3.7953    0.0000 N   0  0
    0.5000    0.7000    0.0000 C   0  0
   -0.7600   -0.4400    0.0000 O   0  0
    1.2600   -0.4400    0.0000 C   0  0
    2.1681    0.7539    0.0000 O   0  0
  2  1  1  4
  2  3  1  0
  3  4  1  0
  4  5  1  4
  5  6  2  0
  6  2  1  0
  4  7  1  0
  7  8  1  4
  8  9  1  0
  9 10  1  0
 10 11  2  0
 10 12  1  0
  9 13  2  0
  3 13  1  4
  7 14  1  0
 14 15  1  0
 15  2  1  0
 15 16  2  0
M  END
> <Smiles>
OC12C3C(C=C1)C(OC(C(=O)N)=C3)OC2=O

> <IC50_uM>
0.891250938

> <pIC50>
6.05

> <Activity>
1

$$$$

  SciTegic10102310092D

 15 15  0  0  0  0            999 V2000
    1.7710   -2.1532    0.0000 C   0  0
    1.2990   -0.7500    0.0000 C   0  0  3  0  0  0
    1.2990    0.7500    0.0000 C   0  0
    0.0000    1.5000    0.0000 N   0  0
   -1.2990    0.7500    0.0000 C   0  0
   -2.5981    1.5000    0.0000 O   0  0
   -1.2990   -0.7500    0.0000 N   0  0
    0.0000   -1.5000    0.0000 C   0  0  3  0  0  0
   -0.0031   -3.0008    0.0000 O   0  0
   -1.3032   -3.7490    0.0000 C   0  0
    2.5981    1.5000    0.0000 O   0  0
    2.5793    0.0316    0.0000 F   0  0
    3.2482   -2.4135    0.0000 O   0  0
    0.8068   -3.3033    0.0000 O   0  0
    1.3195   -4.7130    0.0000 C   0  0
  1  2  1  0
  2  3  1  0
  3  4  1  0
  4  5  1  0
  5  6  2  0
  5  7  1  0
  7  8  1  0
  8  2  1  0
  8  9  1  4
  9 10  1  0
  3 11  2  0
  2 12  1  4
  1 13  2  0
  1 14  1  0
 14 15  1  0
M  END
> <Smiles>
C(C1(C(NC(=O)NC1OC)=O)F)(=O)OC

> <IC50_uM>
0.891250938

> <pIC50>
6.05

> <Activity>
1

$$$$

  SciTegic10102310092D

 14 14  0  0  0  0            999 V2000
    1.6332   -2.2426    0.0000 C   0  0  3  0  0  0
    0.7500   -1.0323    0.0000 C   0  0  3  0  0  0
    1.2135    0.3943    0.0000 N   0  0
    0.0000    1.2760    0.0000 C   0  0
    0.0000    2.7760    0.0000 O   0  0
   -1.2135    0.3943    0.0000 C   0  0
   -2.6394    0.8543    0.0000 C   0  0
   -3.7527   -0.1510    0.0000 O   0  0
   -2.9539    2.3210    0.0000 C   0  0
   -0.7500   -1.0323    0.0000 C   0  0
   -1.6317   -2.2458    0.0000 O   0  0
    1.0255   -3.6140    0.0000 C   0  0
    3.1255   -2.0835    0.0000 C   0  0
    4.0097   -3.2952    0.0000 C   0  0
  1  2  1  0
  2  3  1  4
  3  4  1  0
  4  5  2  0
  4  6  1  0
  6  7  1  0
  7  8  2  0
  7  9  1  0
  6 10  2  0
 10  2  1  0
 10 11  1  0
  1 12  1  4
  1 13  1  0
 13 14  1  0
M  END
> <Smiles>
C(C1NC(=O)C(C(=O)C)=C1O)(C)CC

> <IC50_uM>
0.891250938

> <pIC50>
6.05

> <Activity>
1

$$$$

  SciTegic10102310092D

 16 17  0  0  0  0            999 V2000
    2.4133   -1.7530    0.0000 O   0  0
    1.2990   -0.7500    0.0000 C   0  0
    1.2990    0.7500    0.0000 C   0  0
    2.5972    1.5031    0.0000 C   0  0
    3.8976    0.7554    0.0000 O   0  0
    2.5951    3.0039    0.0000 N   0  0
    3.8933    3.7570    0.0000 C   0  0
    3.8912    5.2570    0.0000 C   0  0
    1.2956    3.7547    0.0000 C   0  0
    1.2951    5.2547    0.0000 C   0  0
    0.0000    1.5000    0.0000 C   0  0
   -1.2990    0.7500    0.0000 C   0  0
   -1.2990   -0.7500    0.0000 C   0  0
    0.0000   -1.5000    0.0000 C   0  0
    0.3114   -2.9665    0.0000 O   0  0
    1.8032   -3.1233    0.0000 C   0  0
  1  2  1  0
  2  3  2  0
  3  4  1  0
  4  5  2  0
  4  6  1  0
  6  7  1  0
  7  8  1  0
  6  9  1  0
  9 10  1  0
  3 11  1  0
 11 12  2  0
 12 13  1  0
  2 14  1  0
 14 13  2  0
 14 15  1  0
 15 16  1  0
 16  1  1  0
M  END
> <Smiles>
O1c(c(C(=O)N(CC)CC)ccc2)c2OC1

> <IC50_uM>
0.891250938

> <pIC50>
6.05

> <Activity>
1

$$$$

  SciTegic10102310092D

 15 16  0  0  0  0            999 V2000
    1.2990   -0.7500    0.0000 C   0  0  3  0  0  0
    1.2990    0.7500    0.0000 C   0  0
    0.0000    1.5000    0.0000 O   0  0
   -1.2990    0.7500    0.0000 C   0  0
   -2.5800   -0.0305    0.0000 C   0  0
   -1.2638    2.2496    0.0000 C   0  0
   -1.2990   -0.7500    0.0000 P   0  0  3  0  0  0
   -2.5987   -1.5004    0.0000 C   0  0
   -3.8991   -0.7525    0.0000 C   0  0
   -5.1969   -1.5046    0.0000 C   0  0
   -5.1945   -3.0046    0.0000 C   0  0
   -3.8943   -3.7525    0.0000 C   0  0
   -2.5964   -3.0004    0.0000 C   0  0
    0.0000   -1.5000    0.0000 C   0  0
    2.5981   -1.5000    0.0000 C   0  0
  1  2  1  0
  2  3  1  0
  3  4  1  0
  4  5  1  0
  4  6  1  0
  4  7  1  0
  7  8  1  4
  8  9  2  0
  9 10  1  0
 10 11  2  0
 11 12  1  0
 12 13  2  0
 13  8  1  0
  7 14  1  0
 14  1  1  0
  1 15  1  4
M  END
> <Smiles>
C1(COC(C)(C)P(c2ccccc2)C1)C

> <IC50_uM>
0.891250938

> <pIC50>
6.05

> <Activity>
1

$$$$

  SciTegic10102310092D

 15 16  0  0  0  0            999 V2000
    0.7500   -1.0323    0.0000 C   0  0
    1.2135    0.3943    0.0000 C   0  0
    0.0000    1.2760    0.0000 N   0  0
   -1.2135    0.3943    0.0000 C   0  0
   -2.6394    0.8543    0.0000 S   0  0
   -3.7533   -0.1515    0.0000 C   0  0
   -5.2054    0.1698    0.0000 C   0  0
   -5.8119    1.5398    0.0000 N   0  3
   -4.9272    2.7511    0.0000 O   0  5
   -7.3032    1.7007    0.0000 O   0  0
   -5.9508   -1.1318    0.0000 N   0  0
   -4.9433   -2.2430    0.0000 C   0  0
   -3.5751   -1.6281    0.0000 N   0  0
   -2.2690   -2.3658    0.0000 C   0  0
   -0.7500   -1.0323    0.0000 N   0  0
  1  2  2  0
  2  3  1  0
  3  4  1  0
  4  5  1  0
  5  6  1  0
  6  7  2  0
  7  8  1  0
  8  9  1  0
  8 10  2  0
  7 11  1  0
 11 12  2  0
 12 13  1  0
 13  6  1  0
 13 14  1  0
  4 15  2  0
 15  1  1  0
M  CHG  2   8   1   9  -1
M  END
> <Smiles>
c1c[nH]c(Sc2c([N+]([O-])=O)ncn2C)n1

> <IC50_uM>
0.891250938

> <pIC50>
6.05

> <Activity>
1

$$$$

  SciTegic10102310092D

 16 17  0  0  0  0            999 V2000
    2.5951   -3.0031    0.0000 C   0  0
    2.5973   -1.5031    0.0000 O   0  0
    1.2990   -0.7500    0.0000 C   0  0
    1.2990    0.7500    0.0000 C   0  0
    0.0000    1.5000    0.0000 C   0  0
   -1.2990    0.7500    0.0000 C   0  0
   -2.5981    1.5000    0.0000 C   0  0
   -3.8971    0.7500    0.0000 C   0  0  3  0  0  0
   -5.1984    1.4977    0.0000 C   0  0
   -5.2011    2.9977    0.0000 O   0  0
   -6.4964    0.7459    0.0000 O   0  0
   -3.8971   -0.7500    0.0000 C   0  0
   -2.5981   -1.5000    0.0000 C   0  0
   -2.5981   -3.0000    0.0000 O   0  0
   -1.2990   -0.7500    0.0000 C   0  0
    0.0000   -1.5000    0.0000 C   0  0
  1  2  1  0
  2  3  1  0
  3  4  2  0
  4  5  1  0
  5  6  2  0
  6  7  1  0
  7  8  1  0
  8  9  1  4
  9 10  1  0
  9 11  2  0
  8 12  1  0
 12 13  1  0
 13 14  2  0
  6 15  1  0
 15 13  1  0
 15 16  2  0
 16  3  1  0
M  END
> <Smiles>
COc1ccc(CC(C(O)=O)CC2=O)c2c1

> <IC50_uM>
0.891250938

> <pIC50>
6.05

> <Activity>
1

$$$$

  SciTegic10102310092D

 13 13  0  0  0  0            999 V2000
    1.6852   -0.3846    0.0000 C   0  0
    1.3514    1.0778    0.0000 C   0  0
    0.0000    1.7286    0.0000 C   0  0
   -1.3515    1.0777    0.0000 C   0  0
   -1.6852   -0.3847    0.0000 C   0  0  3  0  0  0
   -3.1476   -0.7184    0.0000 O   0  0
   -0.7500   -1.5574    0.0000 C   0  0  3  0  0  0
   -1.3993   -2.9127    0.0000 N   0  0
   -0.5521   -4.1515    0.0000 C   0  0
   -1.2005   -5.5051    0.0000 C   0  0
   -0.3533   -6.7439    0.0000 C   0  0
   -1.0013   -8.0967    0.0000 C   0  0
    0.7500   -1.5574    0.0000 C   0  0
  1  2  1  0
  2  3  1  0
  3  4  1  0
  4  5  1  0
  5  6  1  4
  5  7  1  0
  7  8  1  4
  8  9  1  0
  9 10  1  0
 10 11  1  0
 11 12  1  0
  7 13  1  0
 13  1  1  0
M  END
> <Smiles>
C1CCCC(O)C(NCCCC)C1

> <IC50_uM>
0.891250938

> <pIC50>
6.05

> <Activity>
1

$$$$

  SciTegic10102310092D

 15 16  0  0  0  0            999 V2000
    1.2990   -0.7500    0.0000 C   0  0
    2.5981   -1.5000    0.0000 Cl  0  0
    1.2990    0.7500    0.0000 C   0  0
    0.0000    1.5000    0.0000 C   0  0
    0.3114    2.9665    0.0000 N   0  0
    1.8032    3.1233    0.0000 C   0  0
    2.4133    1.7530    0.0000 N   0  0
    3.8794    1.4442    0.0000 C   0  0
    4.8823    2.5608    0.0000 O   0  0
    6.3509    2.2515    0.0000 C   0  0
    7.3537    3.3681    0.0000 C   0  0
    8.3561    4.4841    0.0000 C   0  0
   -1.2990    0.7500    0.0000 N   0  0
   -1.2990   -0.7500    0.0000 C   0  0
    0.0000   -1.5000    0.0000 N   0  0
  1  2  1  0
  1  3  2  0
  3  4  1  0
  4  5  1  0
  5  6  2  0
  6  7  1  0
  7  3  1  0
  7  8  1  0
  8  9  1  0
  9 10  1  0
 10 11  1  0
 11 12  3  0
  4 13  2  0
 13 14  1  0
 14 15  2  0
 15  1  1  0
M  END
> <Smiles>
c1(Cl)c2c(ncn2COCC#C)ncn1

> <IC50_uM>
0.891250938

> <pIC50>
6.05

> <Activity>
1

$$$$

  SciTegic10102310092D

 15 16  0  0  0  0            999 V2000
    1.2990   -0.7500    0.0000 C   0  0
    2.5981   -1.5000    0.0000 Cl  0  0
    1.2990    0.7500    0.0000 C   0  0
    0.0000    1.5000    0.0000 C   0  0
    0.3114    2.9665    0.0000 N   0  0
   -0.6890    4.0818    0.0000 C   0  0
   -0.2235    5.5086    0.0000 O   0  0
   -1.2256    6.6258    0.0000 C   0  0
   -0.7601    8.0526    0.0000 C   0  0
   -0.2948    9.4786    0.0000 C   0  0
    1.8032    3.1233    0.0000 C   0  0
    2.4133    1.7530    0.0000 N   0  0
   -1.2990    0.7500    0.0000 N   0  0
   -1.2990   -0.7500    0.0000 C   0  0
    0.0000   -1.5000    0.0000 N   0  0
  1  2  1  0
  1  3  2  0
  3  4  1  0
  4  5  1  0
  5  6  1  0
  6  7  1  0
  7  8  1  0
  8  9  1  0
  9 10  3  0
  5 11  1  0
 11 12  2  0
 12  3  1  0
  4 13  2  0
 13 14  1  0
 14 15  2  0
 15  1  1  0
M  END
> <Smiles>
c1(Cl)c2c(n(COCC#C)cn2)ncn1

> <IC50_uM>
0.891250938

> <pIC50>
6.05

> <Activity>
1

$$$$

  SciTegic10102310092D

 16 19  0  0  0  0            999 V2000
    0.7500   -1.0323    0.0000 C   0  0  3  0  0  0
    1.2135    0.3943    0.0000 C   0  0  3  0  0  0
    0.0000    1.2760    0.0000 C   0  0  3  0  0  0
    0.0000    2.7760    0.0000 O   0  0
   -1.2135    0.3943    0.0000 C   0  0
   -0.7500   -1.0323    0.0000 C   0  0  3  0  0  0
   -1.2135   -2.4568    0.0000 C   0  0
   -2.6402   -2.9200    0.0000 O   0  0
    1.2135   -2.4568    0.0000 C   0  0  3  0  0  0
    2.7796   -1.7813    0.0000 C   0  0  3  0  0  0
    2.8434   -3.6369    0.0000 C   0  0
    1.5462   -4.3900    0.0000 C   0  0  3  0  0  0
    1.4927   -5.8890    0.0000 O   0  0
    2.7794   -0.2813    0.0000 C   0  0
    4.0326    0.5430    0.0000 O   0  0
    0.0000   -3.3384    0.0000 C   0  0  3  0  0  0
  1  2  1  4
  2  3  1  0
  3  4  1  4
  3  5  1  0
  1  6  1  0
  6  5  1  4
  6  7  1  0
  7  8  2  0
  9  1  1  4
  9 10  1  0
 10 11  1  4
 11 12  1  0
 12 13  1  4
 10 14  1  0
  2 14  1  4
 14 15  2  0
  9 16  1  0
 16  7  1  4
 16 12  1  0
M  END
> <Smiles>
C(C1C(O)C2)(C2C3=O)C(C(CC4O)C1=O)C34

> <IC50_uM>
0.891250938

> <pIC50>
6.05

> <Activity>
1

$$$$

  SciTegic10102310092D

 16 16  0  0  0  0            999 V2000
    1.2990   -0.7500    0.0000 C   0  0
    1.2990    0.7500    0.0000 C   0  0
    2.6003    1.4978    0.0000 N   0  0
    3.8990    0.7455    0.0000 C   0  0
    5.2003    1.4932    0.0000 C   0  0
    6.4990    0.7410    0.0000 O   0  0
    7.8003    1.4887    0.0000 C   0  0
    9.0983    0.7369    0.0000 C   0  0
    5.2029    2.9932    0.0000 O   0  0
    3.8964   -0.7545    0.0000 O   0  0
    0.0000    1.5000    0.0000 C   0  0
   -0.0031    3.0008    0.0000 C   0  0
   -1.3032    3.7490    0.0000 C   0  0
   -1.2990    0.7500    0.0000 C   0  0
   -1.2990   -0.7500    0.0000 C   0  0
    0.0000   -1.5000    0.0000 C   0  0
  1  2  2  0
  2  3  1  0
  3  4  1  0
  4  5  1  0
  5  6  1  0
  6  7  1  0
  7  8  1  0
  5  9  2  0
  4 10  2  0
  2 11  1  0
 11 12  1  0
 12 13  1  0
 11 14  2  0
 14 15  1  0
 15 16  2  0
 16  1  1  0
M  END
> <Smiles>
c1c(NC(C(OCC)=O)=O)c(CC)ccc1

> <IC50_uM>
0.891250938

> <pIC50>
6.05

> <Activity>
1

$$$$

  SciTegic10102310092D

 16 16  0  0  0  0            999 V2000
    3.0418   -8.6340    0.0000 C   0  0
    2.1626   -7.4186    0.0000 C   0  0
    1.2830   -6.2026    0.0000 C   0  0
    1.8954   -4.8324    0.0000 N   0  0
    1.0157   -3.6164    0.0000 C   0  0
    1.6281   -2.2462    0.0000 O   0  0
    0.7500   -1.0323    0.0000 N   0  0
    1.2135    0.3943    0.0000 C   0  0
    2.6401    0.8578    0.0000 O   0  0
    0.0000    1.2760    0.0000 C   0  0
   -1.2135    0.3943    0.0000 C   0  0
   -0.7500   -1.0323    0.0000 C   0  0
   -1.6317   -2.2458    0.0000 O   0  0
   -0.4763   -3.7706    0.0000 O   0  0
    3.3886   -4.6812    0.0000 N   0  0
    4.2664   -5.8976    0.0000 O   0  0
  1  2  3  0
  2  3  1  0
  3  4  1  0
  4  5  1  0
  5  6  1  0
  6  7  1  0
  7  8  1  0
  8  9  2  0
  8 10  1  0
 10 11  1  0
 11 12  1  0
 12  7  1  0
 12 13  2  0
  5 14  2  0
  4 15  1  0
 15 16  2  0
M  END
> <Smiles>
C#CCN(C(ON1C(=O)CCC1=O)=O)N=O

> <IC50_uM>
0.891250938

> <pIC50>
6.05

> <Activity>
1

$$$$

  SciTegic10102310092D

 16 16  0  0  0  0            999 V2000
    1.2990   -0.7500    0.0000 C   0  0
    1.2990    0.7500    0.0000 C   0  0
    2.6003    1.4978    0.0000 N   0  0
    3.8990    0.7455    0.0000 C   0  0
    5.2003    1.4932    0.0000 C   0  0
    6.4990    0.7410    0.0000 O   0  0
    7.8003    1.4887    0.0000 C   0  0
    9.0983    0.7369    0.0000 C   0  0
    5.2029    2.9932    0.0000 O   0  0
    3.8964   -0.7545    0.0000 O   0  0
    0.0000    1.5000    0.0000 C   0  0
    0.0000    3.0000    0.0000 C   0  0
   -1.2990    0.7500    0.0000 C   0  0
   -1.2990   -0.7500    0.0000 C   0  0
   -2.5981   -1.5000    0.0000 C   0  0
    0.0000   -1.5000    0.0000 C   0  0
  1  2  2  0
  2  3  1  0
  3  4  1  0
  4  5  1  0
  5  6  1  0
  6  7  1  0
  7  8  1  0
  5  9  2  0
  4 10  2  0
  2 11  1  0
 11 12  1  0
 11 13  2  0
 13 14  1  0
 14 15  1  0
 14 16  2  0
 16  1  1  0
M  END
> <Smiles>
c1c(NC(C(OCC)=O)=O)c(C)cc(C)c1

> <IC50_uM>
0.891250938

> <pIC50>
6.05

> <Activity>
1

$$$$

  SciTegic10102310092D

 16 16  0  0  0  0            999 V2000
    1.2990   -0.7500    0.0000 C   0  0
    2.5981   -1.5000    0.0000 C   0  0
    1.2990    0.7500    0.0000 C   0  0
    2.5972    1.5031    0.0000 N   0  0
    2.5951    3.0039    0.0000 C   0  0
    3.8933    3.7570    0.0000 C   0  0
    3.8912    5.2578    0.0000 O   0  0
    5.1894    6.0109    0.0000 C   0  0
    5.1872    7.5109    0.0000 C   0  0
    5.1936    3.0093    0.0000 O   0  0
    1.2948    3.7517    0.0000 O   0  0
    0.0000    1.5000    0.0000 C   0  0
    0.0000    3.0000    0.0000 C   0  0
   -1.2990    0.7500    0.0000 C   0  0
   -1.2990   -0.7500    0.0000 C   0  0
    0.0000   -1.5000    0.0000 C   0  0
  1  2  1  0
  1  3  2  0
  3  4  1  0
  4  5  1  0
  5  6  1  0
  6  7  1  0
  7  8  1  0
  8  9  1  0
  6 10  2  0
  5 11  2  0
  3 12  1  0
 12 13  1  0
 12 14  2  0
 14 15  1  0
 15 16  2  0
 16  1  1  0
M  END
> <Smiles>
c1(C)c(NC(C(OCC)=O)=O)c(C)ccc1

> <IC50_uM>
0.891250938

> <pIC50>
6.05

> <Activity>
1

$$$$

  SciTegic10102310092D

 16 16  0  0  0  0            999 V2000
    1.2990   -0.7500    0.0000 C   0  0
    1.2990    0.7500    0.0000 C   0  0
    2.5972    1.5031    0.0000 O   0  0
    2.5951    3.0039    0.0000 C   0  0
    3.8933    3.7570    0.0000 C   0  0  3  0  0  0
    3.8912    5.2578    0.0000 C   0  0
    5.1886    6.0105    0.0000 O   0  0
    5.1936    3.0093    0.0000 O   0  0
    0.0000    1.5000    0.0000 C   0  0
   -1.2990    0.7500    0.0000 C   0  0
   -1.2990   -0.7500    0.0000 C   0  0
   -2.5972   -1.5031    0.0000 N   0  0
   -2.5951   -3.0039    0.0000 C   0  0
   -1.2948   -3.7517    0.0000 C   0  0
   -3.8926   -3.7566    0.0000 O   0  0
    0.0000   -1.5000    0.0000 C   0  0
  1  2  2  0
  2  3  1  0
  3  4  1  0
  4  5  1  0
  5  6  1  0
  6  7  1  0
  5  8  1  4
  2  9  1  0
  9 10  2  0
 10 11  1  0
 11 12  1  0
 12 13  1  0
 13 14  1  0
 13 15  2  0
 11 16  2  0
 16  1  1  0
M  END
> <Smiles>
c1c(OCC(CO)O)ccc(NC(C)=O)c1

> <IC50_uM>
0.891250938

> <pIC50>
6.05

> <Activity>
1

$$$$

  SciTegic10102310092D

 16 17  0  0  0  0            999 V2000
    2.4133   -1.7530    0.0000 N   0  0
    1.2990   -0.7500    0.0000 C   0  0
    1.2990    0.7500    0.0000 N   0  0
    2.5972    1.5031    0.0000 C   0  0
    2.5951    3.0039    0.0000 C   0  0
    1.2948    3.7517    0.0000 O   0  0
    3.8926    3.7566    0.0000 O   0  0
    0.0000    1.5000    0.0000 C   0  0
    0.0000    3.0000    0.0000 O   0  0
   -1.2990    0.7500    0.0000 N   0  0
   -2.5981    1.5000    0.0000 C   0  0
   -1.2990   -0.7500    0.0000 C   0  0
   -2.5981   -1.5000    0.0000 O   0  0
    0.0000   -1.5000    0.0000 C   0  0
    0.3114   -2.9665    0.0000 N   0  0
    1.8032   -3.1233    0.0000 C   0  0
  1  2  1  0
  2  3  1  0
  3  4  1  0
  4  5  1  0
  5  6  1  0
  5  7  2  0
  3  8  1  0
  8  9  2  0
  8 10  1  0
 10 11  1  0
 10 12  1  0
 12 13  2  0
  2 14  2  0
 14 12  1  0
 14 15  1  0
 15 16  1  0
 16  1  2  0
M  END
> <Smiles>
n1c(N(CC(O)=O)C(=O)N(C)C2=O)c2[nH]c1

> <IC50_uM>
0.891250938

> <pIC50>
6.05

> <Activity>
1

$$$$

  SciTegic10102310092D

 16 17  0  0  0  0            999 V2000
    1.2990   -0.7500    0.0000 C   0  0
    2.5981   -1.5000    0.0000 O   0  0
    1.2990    0.7500    0.0000 C   0  0
    0.0000    1.5000    0.0000 C   0  0
   -1.2990    0.7500    0.0000 C   0  0  3  0  0  0
   -2.5987    1.5004    0.0000 N   0  0
   -3.8967    0.7484    0.0000 N   0  0
   -5.1969    1.4963    0.0000 C   0  0
   -5.1993    2.9963    0.0000 C   0  0
   -6.4995    3.7442    0.0000 O   0  0
   -3.9014    3.7484    0.0000 N   0  0
   -2.6012    3.0004    0.0000 C   0  0
   -1.3034    3.7525    0.0000 O   0  0
   -1.2990   -0.7500    0.0000 O   0  0
    0.0000   -1.5000    0.0000 C   0  0  3  0  0  0
    0.0000   -3.0000    0.0000 C   0  0
  1  2  2  0
  1  3  1  0
  3  4  2  0
  4  5  1  0
  5  6  1  4
  6  7  1  0
  7  8  2  0
  8  9  1  0
  9 10  2  0
  9 11  1  0
 11 12  1  0
 12  6  1  0
 12 13  2  0
  5 14  1  0
 14 15  1  0
 15  1  1  0
 15 16  1  4
M  END
> <Smiles>
C1(=O)C=CC(N2N=CC(=O)NC2=O)OC1C

> <IC50_uM>
0.891250938

> <pIC50>
6.05

> <Activity>
1

$$$$

  SciTegic10102310092D

 16 16  0  0  0  0            999 V2000
    1.2990   -0.7500    0.0000 C   0  0
    1.2990    0.7500    0.0000 C   0  0
    2.5972    1.5031    0.0000 O   0  0
    2.5951    3.0031    0.0000 C   0  0
    0.0000    1.5000    0.0000 C   0  0
   -1.2990    0.7500    0.0000 C   0  0
   -1.2990   -0.7500    0.0000 C   0  0
   -2.5972   -1.5031    0.0000 C   0  0
   -2.5951   -3.0039    0.0000 C   0  0
   -3.8933   -3.7570    0.0000 C   0  0
   -5.1937   -3.0093    0.0000 O   0  0
   -3.8912   -5.2570    0.0000 O   0  0
   -1.2925   -3.7494    0.0000 C   0  0
   -1.2873   -5.2494    0.0000 O   0  0
    0.0042   -2.9953    0.0000 O   0  0
    0.0000   -1.5000    0.0000 C   0  0
  1  2  2  0
  2  3  1  0
  3  4  1  0
  2  5  1  0
  5  6  2  0
  6  7  1  0
  7  8  1  0
  8  9  2  0
  9 10  1  0
 10 11  1  0
 10 12  2  0
  9 13  1  0
 13 14  1  0
 13 15  2  0
  7 16  2  0
 16  1  1  0
M  END
> <Smiles>
c1c(OC)ccc(C=C(C(O)=O)C(O)=O)c1

> <IC50_uM>
0.891250938

> <pIC50>
6.05

> <Activity>
1

$$$$

  SciTegic10102310092D

 16 18  0  0  0  0            999 V2000
    1.2990   -0.7500    0.0000 C   0  0
    1.2990    0.7500    0.0000 C   0  0
    2.4133    1.7530    0.0000 C   0  0
    1.8032    3.1233    0.0000 C   0  0  3  0  0  0
    0.3114    2.9665    0.0000 C   0  0  3  0  0  0
   -0.2967    4.3175    0.0000 N   0  0
    0.8180    5.3212    0.0000 C   0  0
    0.6612    6.8130    0.0000 O   0  0
    2.1171    4.5713    0.0000 N   0  0
   -1.1800    2.8065    0.0000 O   0  0
    3.2953    3.2771    0.0000 O   0  0
    3.8805    1.4410    0.0000 O   0  0
    0.0000    1.5000    0.0000 C   0  0
   -1.2990    0.7500    0.0000 C   0  0
   -1.2990   -0.7500    0.0000 C   0  0
    0.0000   -1.5000    0.0000 C   0  0
  1  2  2  0
  2  3  1  0
  3  4  1  0
  4  5  1  0
  5  6  1  0
  6  7  1  0
  7  8  2  0
  7  9  1  0
  9  4  1  0
  5 10  1  4
  4 11  1  4
  3 12  2  0
  2 13  1  0
 13  5  1  0
 13 14  2  0
 14 15  1  0
 15 16  2  0
 16  1  1  0
M  END
> <Smiles>
c1c(C(C2(C3(NC(=O)N2)O)O)=O)c3ccc1

> <IC50_uM>
0.891250938

> <pIC50>
6.05

> <Activity>
1

$$$$

  SciTegic10102310092D

 15 15  0  0  0  0            999 V2000
    1.2990   -0.7500    0.0000 C   0  0
    1.2990    0.7500    0.0000 C   0  0
    0.0000    1.5000    0.0000 C   0  0
    0.0031    3.0008    0.0000 C   0  0
   -1.2947    3.7531    0.0000 O   0  0
    1.3032    3.7490    0.0000 O   0  0
   -1.2990    0.7500    0.0000 C   0  0
   -2.6003    1.4977    0.0000 S   0  0
   -3.8990    0.7455    0.0000 C   0  0
   -5.2003    1.4932    0.0000 C   0  0
   -6.4990    0.7409    0.0000 C   0  0
   -6.4964   -0.7591    0.0000 O   0  0
   -7.7996    1.4882    0.0000 O   0  0
   -1.2990   -0.7500    0.0000 C   0  0
    0.0000   -1.5000    0.0000 C   0  0
  1  2  2  0
  2  3  1  0
  3  4  1  0
  4  5  1  0
  4  6  2  0
  3  7  2  0
  7  8  1  0
  8  9  1  0
  9 10  2  0
 10 11  1  0
 11 12  1  0
 11 13  2  0
  7 14  1  0
 14 15  2  0
 15  1  1  0
M  END
> <Smiles>
c1cc(C(O)=O)c(S\C=C\C(O)=O)cc1

> <IC50_uM>
0.891250938

> <pIC50>
6.05

> <Activity>
1

$$$$

  SciTegic10102310092D

 16 20  0  0  0  0            999 V2000
   12.0762   13.9241    0.0000 C   0  0  3  0  0  0
   12.9535   13.0468    0.0000 C   0  0  3  0  0  0
   12.9535   11.4416    0.0000 C   0  0  3  0  0  0
   14.5587   11.4416    0.0000 C   0  0  3  0  0  0
   14.5587   13.0468    0.0000 C   0  0  3  0  0  0
   15.9270   13.6282    0.0000 C   0  0
   17.1253   12.7246    0.0000 N   0  0
   18.5066   13.3093    0.0000 O   0  0
   16.1107   15.1169    0.0000 O   0  0
   13.6814   13.9241    0.0000 C   0  0  3  0  0  0
   13.6814   12.3189    0.0000 C   0  0  3  0  0  0
   12.0762   12.3189    0.0000 C   0  0  3  0  0  0
   10.7077   11.7380    0.0000 C   0  0
   10.5219   10.2487    0.0000 N   0  0
    9.1403    9.6645    0.0000 O   0  0
    9.5113   12.6427    0.0000 O   0  0
  2  1  1  4
  3  2  1  4
  4  3  1  4
  4  5  1  0
  5  2  1  0
  5  6  1  4
  6  7  1  0
  7  8  1  0
  6  9  2  0
 10  5  1  4
 10  1  1  0
 11 10  1  4
 11  4  1  0
  3 12  1  0
 12  1  1  0
 12 11  1  0
 12 13  1  4
 13 14  1  0
 14 15  1  0
 13 16  2  0
M  END
> <Smiles>
C12C3C(C4C3(C(NO)=O)C1C45)C25C(NO)=O

> <IC50_uM>
0.891250938

> <pIC50>
6.05

> <Activity>
1

$$$$

  SciTegic10102310092D

 16 17  0  0  0  0            999 V2000
    1.2990   -0.7500    0.0000 C   0  0
    1.2990    0.7500    0.0000 C   0  0
    0.0000    1.5000    0.0000 C   0  0
   -1.2990    0.7500    0.0000 C   0  0
   -1.2990   -0.7500    0.0000 C   0  0
   -2.5981   -1.5000    0.0000 O   0  0
    0.0000   -1.5000    0.0000 C   0  0
    2.5981    1.5000    0.0000 C   0  0
    2.6012    3.0008    0.0000 C   0  0
    3.9020    3.7494    0.0000 C   0  0
    5.1997    2.9972    0.0000 O   0  0
    3.9051    5.2494    0.0000 O   0  0
    3.8971    0.7500    0.0000 C   0  0
    3.8971   -0.7500    0.0000 C   0  0
    5.1962   -1.5000    0.0000 O   0  0
    2.5981   -1.5000    0.0000 O   0  0
  1  2  2  0
  2  3  1  0
  3  4  2  0
  4  5  1  0
  5  6  1  0
  5  7  2  0
  7  1  1  0
  2  8  1  0
  8  9  1  0
  9 10  1  0
 10 11  1  0
 10 12  2  0
  8 13  2  0
 13 14  1  0
 14 15  2  0
 14 16  1  0
 16  1  1  0
M  END
> <Smiles>
c12c(ccc(O)c1)C(CC(O)=O)=CC(=O)O2

> <IC50_uM>
0.891250938

> <pIC50>
6.05

> <Activity>
1

$$$$

  SciTegic10102310092D

 16 18  0  0  0  0            999 V2000
    1.2990   -0.7500    0.0000 C   0  0
    1.2990    0.7500    0.0000 C   0  0  3  0  0  0
    2.5981    1.5000    0.0000 C   0  0
    2.5981    3.0000    0.0000 C   0  0
    1.2990    3.7500    0.0000 C   0  0
    0.0000    3.0000    0.0000 C   0  0
    0.0000    1.5000    0.0000 N   0  0  3  0  0  0
   -1.2990    0.7500    0.0000 C   0  0  3  0  0  0
   -2.7248    1.2135    0.0000 C   0  0
   -3.6065    0.0000    0.0000 C   0  0
   -2.7248   -1.2135    0.0000 C   0  0
   -1.2990   -0.7500    0.0000 N   0  0  3  0  0  0
    0.0000   -1.5000    0.0000 C   0  0  3  0  0  0
    0.0031   -3.0008    0.0000 C   0  0
    1.3039   -3.7494    0.0000 C   0  0
    1.3070   -5.2494    0.0000 C   0  0
  2  1  1  4
  2  3  1  0
  3  4  1  0
  4  5  1  0
  5  6  1  0
  2  7  1  0
  7  6  1  4
  7  8  1  0
  8  9  1  4
  9 10  1  0
 10 11  1  0
  8 12  1  0
 12 11  1  4
 12 13  1  0
 13  1  1  0
 13 14  1  4
 14 15  1  0
 15 16  1  0
M  END
> <Smiles>
C1C(CCCC2)N2C(CCC3)N3C1CCC

> <IC50_uM>
0.891250938

> <pIC50>
6.05

> <Activity>
1

$$$$

  SciTegic10102310092D

 16 16  0  0  0  0            999 V2000
    1.2990   -0.7500    0.0000 C   0  0
    2.5973   -1.5031    0.0000 C   0  0
    2.5951   -3.0039    0.0000 C   0  0
    3.8933   -3.7570    0.0000 C   0  0
    3.8912   -5.2578    0.0000 O   0  0
    5.1894   -6.0109    0.0000 C   0  0
    5.1873   -7.5109    0.0000 C   0  0
    5.1937   -3.0093    0.0000 O   0  0
    1.2925   -3.7494    0.0000 C   0  0
    1.2873   -5.2494    0.0000 O   0  0
   -0.0041   -2.9953    0.0000 O   0  0
    1.2990    0.7500    0.0000 C   0  0
    0.0000    1.5000    0.0000 C   0  0
   -1.2990    0.7500    0.0000 C   0  0
   -1.2990   -0.7500    0.0000 C   0  0
    0.0000   -1.5000    0.0000 C   0  0
  1  2  1  0
  2  3  2  0
  3  4  1  0
  4  5  1  0
  5  6  1  0
  6  7  1  0
  4  8  2  0
  3  9  1  0
  9 10  1  0
  9 11  2  0
  1 12  2  0
 12 13  1  0
 13 14  2  0
 14 15  1  0
 15 16  2  0
 16  1  1  0
M  END
> <Smiles>
c1(\C=C(\C(OCC)=O)/C(O)=O)ccccc1

> <IC50_uM>
0.891250938

> <pIC50>
6.05

> <Activity>
1

$$$$

  SciTegic10102310092D

 16 16  0  0  0  0            999 V2000
    1.2990   -0.7500    0.0000 C   0  0
    1.2990    0.7500    0.0000 C   0  0
    0.0000    1.5000    0.0000 N   0  0
   -1.2990    0.7500    0.0000 C   0  0
   -2.5973    1.5031    0.0000 C   0  0
   -2.5951    3.0039    0.0000 N   0  0
   -3.8933    3.7570    0.0000 O   0  0
   -3.8912    5.2578    0.0000 C   0  0
   -2.5909    6.0055    0.0000 C   0  0
   -5.1887    6.0105    0.0000 O   0  0
   -1.2990   -0.7500    0.0000 C   0  0
   -2.5972   -1.5031    0.0000 O   0  0
   -2.5951   -3.0039    0.0000 C   0  0
   -1.2948   -3.7517    0.0000 C   0  0
   -3.8926   -3.7566    0.0000 O   0  0
    0.0000   -1.5000    0.0000 C   0  0
  1  2  2  0
  2  3  1  0
  3  4  2  0
  4  5  1  0
  5  6  2  0
  6  7  1  0
  7  8  1  0
  8  9  1  0
  8 10  2  0
  4 11  1  0
 11 12  1  0
 12 13  1  0
 13 14  1  0
 13 15  2  0
 11 16  2  0
 16  1  1  0
M  END
> <Smiles>
c1cnc(\C=N\OC(C)=O)c(OC(C)=O)c1

> <IC50_uM>
0.891250938

> <pIC50>
6.05

> <Activity>
1

$$$$

  SciTegic10102310092D

 15 16  0  0  0  0            999 V2000
    3.0899   -0.9120    0.0000 S   0  0
    1.6852   -0.3846    0.0000 C   0  0
    1.3514    1.0778    0.0000 N   0  0
    0.0000    1.7286    0.0000 C   0  0
    1.3210    2.4391    0.0000 C   0  0
   -1.3210    2.4392    0.0000 C   0  0
   -1.3515    1.0777    0.0000 C   0  0
   -1.6852   -0.3847    0.0000 C   0  0
   -0.7500   -1.5574    0.0000 N   0  0
   -3.1476   -0.7184    0.0000 C   0  0
    0.7500   -1.5574    0.0000 N   0  0
    1.5767   -2.8095    0.0000 C   0  0
    1.0497   -4.2139    0.0000 O   0  0
    3.0226   -2.4104    0.0000 C   0  0  3  0  0  0
    4.1954   -3.3457    0.0000 C   0  0
  1  2  1  0
  2  3  2  0
  3  4  1  0
  4  5  1  0
  4  6  1  0
  4  7  1  0
  7  8  1  0
  8  9  2  0
  8 10  1  0
  2 11  1  0
 11  9  1  0
 11 12  1  0
 12 13  2  0
 12 14  1  0
 14  1  1  0
 14 15  1  4
M  END
> <Smiles>
S1C(=NC(C)(C)CC(=N2)C)N2C(=O)C1C

> <IC50_uM>
0.891250938

> <pIC50>
6.05

> <Activity>
1

$$$$

  SciTegic10102310092D

 16 17  0  0  0  0            999 V2000
    1.2990   -0.7500    0.0000 C   0  0
    1.2990    0.7500    0.0000 C   0  0
    2.5981    1.5000    0.0000 O   0  0
    0.0000    1.5000    0.0000 C   0  0
   -1.2990    0.7500    0.0000 C   0  0
   -1.2990   -0.7500    0.0000 C   0  0  3  0  0  0
   -2.5987   -1.5004    0.0000 N   0  0
   -2.5964   -3.0004    0.0000 C   0  0
   -3.8943   -3.7525    0.0000 C   0  0  3  0  0  0
   -3.8919   -5.2525    0.0000 C   0  0
   -5.1945   -3.0046    0.0000 C   0  0
   -6.4924   -3.7566    0.0000 O   0  0
   -5.1969   -1.5046    0.0000 N   0  0
   -3.8990   -0.7525    0.0000 C   0  0
   -3.9015    0.7475    0.0000 O   0  0
    0.0000   -1.5000    0.0000 C   0  0
  1  2  1  0
  2  3  2  0
  2  4  1  0
  4  5  2  0
  5  6  1  0
  6  7  1  4
  7  8  1  0
  8  9  1  0
  9 10  1  4
  9 11  1  0
 11 12  2  0
 11 13  1  0
 13 14  1  0
 14  7  1  0
 14 15  2  0
  6 16  1  0
 16  1  1  0
M  END
> <Smiles>
C1C(=O)C=CC(N2CC(C)C(=O)NC2=O)C1

> <IC50_uM>
0.891250938

> <pIC50>
6.05

> <Activity>
1

$$$$

  SciTegic10102310092D

 17 18  0  0  0  0            999 V2000
    1.2990   -0.7500    0.0000 C   0  0
    1.2990    0.7500    0.0000 C   0  0
    2.5972    1.5031    0.0000 C   0  0  3  0  0  0
    2.5951    3.0039    0.0000 N   0  3
    3.8933    3.7570    0.0000 C   0  5
    3.8912    5.2578    0.0000 C   0  0
    5.1876    6.0124    0.0000 C   0  0
    5.1824    7.5124    0.0000 C   0  0
    3.8807    8.2579    0.0000 C   0  0
    2.5843    7.5034    0.0000 C   0  0
    2.5895    6.0034    0.0000 C   0  0
    1.2948    3.7517    0.0000 O   0  0
    3.8976    0.7554    0.0000 C   0  0
    0.0000    1.5000    0.0000 C   0  0
   -1.2990    0.7500    0.0000 C   0  0
   -1.2990   -0.7500    0.0000 C   0  0
    0.0000   -1.5000    0.0000 C   0  0
  1  2  2  0
  2  3  1  0
  3  4  1  0
  4  5  1  0
  5  6  1  0
  6  7  2  0
  7  8  1  0
  8  9  2  0
  9 10  1  0
 10 11  2  0
 11  6  1  0
  4 12  2  0
  3 13  1  4
  2 14  1  0
 14 15  2  0
 15 16  1  0
 16 17  2  0
 17  1  1  0
M  CHG  2   4   1   5  -1
M  END
> <Smiles>
c1c(C([N+]([CH-]c2ccccc2)=O)C)cccc1

> <IC50_uM>
0.891250938

> <pIC50>
6.05

> <Activity>
1

$$$$

  SciTegic10102310092D

 12 14  0  0  0  0            999 V2000
   -2.8500   -0.7400    0.0000 C   0  0
   -2.8500   -1.5200    0.0000 C   0  0  3  0  0  0
   -4.4800   -2.2100    0.0000 C   0  0
   -1.4000   -1.8100    0.0000 C   0  0
    0.4600   -1.4800    0.0000 C   0  0  3  0  0  0
   -1.1200   -2.5800    0.0000 C   0  0
   -2.6000   -2.1800    0.0000 C   0  0  3  0  0  0
   -2.5400   -1.3600    0.0000 C   0  0
    0.4900   -0.6700    0.0000 C   0  0
   -1.2300   -0.3200    0.0000 C   0  0  3  0  0  0
   -1.2199    1.1800    0.0000 Cl  0  0
    1.9377   -1.2222    0.0000 N   0  0
  2  1  1  4
  2  3  1  0
  2  4  1  0
  4  5  1  0
  5  6  1  0
  7  6  1  4
  7  3  1  0
  7  8  1  0
  5  9  1  0
  9 10  1  0
 10  1  1  0
 10  8  1  0
 10 11  1  4
  5 12  1  4
M  END
> <Smiles>
C1C(C2)CC(CC2C3)(CC13Cl)N

> <IC50_uM>
0.891250938

> <pIC50>
6.05

> <Activity>
1

$$$$

  SciTegic10102310092D

 13 13  0  0  0  0            999 V2000
    0.7500   -1.0323    0.0000 N   0  0
    1.6281   -2.2462    0.0000 C   0  0
    1.0157   -3.6164    0.0000 C   0  0
   -0.4763   -3.7706    0.0000 N   0  0
    1.8949   -4.8318    0.0000 N   0  0
    1.2135    0.3943    0.0000 C   0  0
    2.6401    0.8578    0.0000 C   0  0
    0.0000    1.2760    0.0000 N   0  0
   -1.2135    0.3943    0.0000 C   0  0
   -2.6394    0.8543    0.0000 N   0  3
   -2.9539    2.3210    0.0000 O   0  5
   -3.7527   -0.1510    0.0000 O   0  0
   -0.7500   -1.0323    0.0000 C   0  0
  1  2  1  0
  2  3  1  0
  3  4  1  0
  3  5  2  0
  1  6  1  0
  6  7  1  0
  6  8  2  0
  8  9  1  0
  9 10  1  0
 10 11  1  0
 10 12  2  0
  9 13  2  0
 13  1  1  0
M  CHG  2  10   1  11  -1
M  END
> <Smiles>
n1(CC(N)=N)c(C)nc([N+]([O-])=O)c1

> <IC50_uM>
0.891250938

> <pIC50>
6.05

> <Activity>
1

$$$$

  SciTegic10102310092D

 14 15  0  0  0  0            999 V2000
    1.2990   -0.7500    0.0000 N   0  0
    1.2990    0.7500    0.0000 C   0  0
    2.4133    1.7530    0.0000 N   0  0
    3.8794    1.4442    0.0000 C   0  0
    4.8823    2.5608    0.0000 C   0  0
    6.3501    2.2517    0.0000 C   0  0
    1.8032    3.1233    0.0000 C   0  0
    0.3114    2.9665    0.0000 S   0  0
    2.5532    4.4223    0.0000 S   0  0
    0.0000    1.5000    0.0000 C   0  0
   -1.2990    0.7500    0.0000 C   0  0
   -2.5981    1.5000    0.0000 O   0  0
   -1.2990   -0.7500    0.0000 N   0  0
    0.0000   -1.5000    0.0000 C   0  0
  1  2  2  0
  2  3  1  0
  3  4  1  0
  4  5  1  0
  5  6  2  0
  3  7  1  0
  7  8  1  0
  7  9  2  0
  2 10  1  0
 10  8  1  0
 10 11  2  0
 11 12  1  0
 11 13  1  0
 13 14  2  0
 14  1  1  0
M  END
> <Smiles>
n1c(N(CC=C)C(S2)=S)c2c(O)nc1

> <IC50_uM>
0.891250938

> <pIC50>
6.05

> <Activity>
1

$$$$

  SciTegic10102310092D

 15 16  0  0  0  0            999 V2000
    1.2990   -0.7500    0.0000 C   0  0
    1.2990    0.7500    0.0000 C   0  0
    2.5981    1.5000    0.0000 N   0  0
    2.5981    3.0000    0.0000 C   0  0
    3.8971    3.7500    0.0000 C   0  0
    1.2990    3.7500    0.0000 C   0  0
    0.0000    3.0000    0.0000 N   0  0
    1.2990    5.2500    0.0000 C   0  0
    0.0000    1.5000    0.0000 C   0  0
   -1.2990    0.7500    0.0000 N   0  0
   -1.2990   -0.7500    0.0000 C   0  0
   -2.5972   -1.5031    0.0000 S   0  0
   -2.5951   -3.0031    0.0000 C   0  0
    0.0000   -1.5000    0.0000 N   0  0
    2.5981   -1.5000    0.0000 O   0  0
  1  2  2  0
  2  3  1  0
  3  4  2  0
  4  5  1  0
  4  6  1  0
  6  7  2  0
  6  8  1  0
  2  9  1  0
  9  7  1  0
  9 10  2  0
 10 11  1  0
 11 12  1  0
 12 13  1  0
 11 14  2  0
 14  1  1  0
  1 15  1  0
M  END
> <Smiles>
c1(c(nc(C)c(n2)C)c2nc(SC)n1)O

> <IC50_uM>
0.891250938

> <pIC50>
6.05

> <Activity>
1

$$$$

  SciTegic10102310092D

 14 15  0  0  0  0            999 V2000
    1.2990   -0.7500    0.0000 C   0  0
    1.2990    0.7500    0.0000 C   0  0
    0.0000    1.5000    0.0000 C   0  0
   -1.2990    0.7500    0.0000 C   0  0
   -2.6003    1.4977    0.0000 C   0  0
   -3.8990    0.7455    0.0000 C   0  0
   -5.2003    1.4932    0.0000 C   0  0
   -6.5517    0.8722    0.0000 N   0  0
   -7.5554    1.9869    0.0000 C   0  0
   -6.8054    3.2859    0.0000 N   0  0
   -7.4155    4.6562    0.0000 C   0  0
   -5.3382    2.9741    0.0000 N   0  0
   -1.2990   -0.7500    0.0000 C   0  0
    0.0000   -1.5000    0.0000 C   0  0
  1  2  2  0
  2  3  1  0
  3  4  2  0
  4  5  1  0
  5  6  1  0
  6  7  1  0
  7  8  1  0
  8  9  2  0
  9 10  1  0
 10 11  1  0
 10 12  1  0
 12  7  2  0
  4 13  1  0
 13 14  2  0
 14  1  1  0
M  END
> <Smiles>
c1ccc(CCc2ncn(C)n2)cc1

> <IC50_uM>
0.891250938

> <pIC50>
6.05

> <Activity>
1

$$$$

  SciTegic10102310092D

 15 17  0  0  0  0            999 V2000
    1.2990   -0.7500    0.0000 C   0  0
    1.2990    0.7500    0.0000 C   0  0
    0.0000    1.5000    0.0000 C   0  0
   -1.2990    0.7500    0.0000 C   0  0
   -2.7248    1.2135    0.0000 N   0  0
   -3.1882    2.6401    0.0000 C   0  0
   -3.6065    0.0000    0.0000 C   0  0
   -5.1065    0.0000    0.0000 O   0  0
   -2.7248   -1.2135    0.0000 N   0  0
   -3.1904   -2.6376    0.0000 C   0  0
   -4.6588   -2.9478    0.0000 C   0  0  3  0  0  0
   -5.6874   -3.9291    0.0000 S   0  0
   -5.9944   -2.4608    0.0000 C   0  0
   -1.2990   -0.7500    0.0000 C   0  0
    0.0000   -1.5000    0.0000 C   0  0
  1  2  2  0
  2  3  1  0
  3  4  2  0
  4  5  1  0
  5  6  1  0
  5  7  1  0
  7  8  2  0
  7  9  1  0
  9 10  1  0
 11 10  1  4
 11 12  1  0
 12 13  1  0
 13 11  1  0
  4 14  1  0
 14  9  1  0
 14 15  2  0
 15  1  1  0
M  END
> <Smiles>
c1ccc(N(C)C(=O)N2CC3SC3)c2c1

> <IC50_uM>
0.891250938

> <pIC50>
6.05

> <Activity>
1

$$$$

  SciTegic10102310092D

 14 15  0  0  0  0            999 V2000
    3.8056   -3.8679    0.0000 S   0  0
    2.5951   -3.0039    0.0000 C   0  0
    2.5973   -1.5031    0.0000 S   0  0  3  0  0  0
    1.2990   -0.7500    0.0000 C   0  0
    1.2990    0.7500    0.0000 C   0  0
    0.0000    1.5000    0.0000 C   0  0
   -1.2990    0.7500    0.0000 C   0  0
   -2.5981    1.5000    0.0000 C   0  0
   -1.2990   -0.7500    0.0000 C   0  0
    0.0000   -1.5000    0.0000 C   0  0
    3.8976   -0.7553    0.0000 O   0  0
    1.3786   -3.8595    0.0000 C   0  0
    1.8372   -5.2877    0.0000 C   0  0
    3.3372   -5.2929    0.0000 C   0  0
  1  2  1  0
  3  2  1  4
  3  4  1  0
  4  5  2  0
  5  6  1  0
  6  7  2  0
  7  8  1  0
  7  9  1  0
  9 10  2  0
 10  4  1  0
  3 11  2  0
  2 12  2  0
 12 13  1  0
 13 14  2  0
 14  1  1  0
M  END
> <Smiles>
s1c(S(c2ccc(C)cc2)=O)ccc1

> <IC50_uM>
0.891250938

> <pIC50>
6.05

> <Activity>
1

$$$$

  SciTegic10102310092D

 13 13  0  0  0  0            999 V2000
    0.7500   -1.0323    0.0000 S   0  0
    1.2135    0.3943    0.0000 C   0  0
    2.6375    0.8603    0.0000 N   0  0
    2.9474    2.3287    0.0000 C   0  0
    1.8309    3.3305    0.0000 C   0  0
    4.3730    2.7952    0.0000 O   0  0
    0.0000    1.2760    0.0000 N   0  0
   -1.2135    0.3943    0.0000 N   0  0
   -0.7500   -1.0323    0.0000 C   0  0
   -1.6306   -2.2444    0.0000 S   0  0
   -1.0201   -3.6145    0.0000 C   0  0
   -3.1225   -2.0886    0.0000 O   0  0
   -2.5117   -3.4583    0.0000 O   0  0
  1  2  1  0
  2  3  1  0
  3  4  1  0
  4  5  1  0
  4  6  2  0
  2  7  2  0
  7  8  1  0
  8  9  2  0
  9  1  1  0
  9 10  1  0
 10 11  1  0
 10 12  2  0
 10 13  2  0
M  END
> <Smiles>
s1c(NC(C)=O)nnc1S(C)(=O)=O

> <IC50_uM>
0.891250938

> <pIC50>
6.05

> <Activity>
1

$$$$

  SciTegic10102310092D

 16 16  0  0  0  0            999 V2000
    2.5981   -1.5000    0.0000 C   0  0
    1.2990   -0.7500    0.0000 C   0  0
    1.2990    0.7500    0.0000 C   0  0
    2.5972    1.5031    0.0000 N   0  0
    3.8983    0.7566    0.0000 O   0  0
    0.0000    1.5000    0.0000 C   0  0
   -1.2990    0.7500    0.0000 C   0  0  3  0  0  0
   -1.2990   -0.7500    0.0000 C   0  0
   -2.5988    1.5004    0.0000 C   0  0
   -2.5998    3.0012    0.0000 N   0  0
   -3.8995    3.7516    0.0000 C   0  0
   -5.1983    3.0012    0.0000 C   0  0
   -3.9005    5.2516    0.0000 O   0  0
   -3.8982    2.2498    0.0000 C   0  0
   -3.8976    0.7500    0.0000 C   0  0
    0.0000   -1.5000    0.0000 C   0  0
  1  2  1  0
  2  3  1  0
  3  4  2  0
  4  5  1  0
  3  6  1  0
  6  7  1  0
  7  8  1  0
  7  9  1  4
  9 10  1  0
 10 11  1  0
 11 12  1  0
 11 13  2  0
  9 14  1  0
  9 15  1  0
  2 16  2  0
 16  8  1  0
M  END
> <Smiles>
CC(\C(=N/O)\CC(C1)C(NC(C)=O)(C)C)=C1

> <IC50_uM>
0.891250938

> <pIC50>
6.05

> <Activity>
1

$$$$

  SciTegic10102310092D

 38 42  0  0  0  0            999 V2000
    2.5923    1.5001    0.0000 C   0  0
    3.8939    0.7546    0.0000 C   0  0
    5.1903    1.5091    0.0000 C   0  0
    6.4920    0.7636    0.0000 C   0  0
    7.7891    1.5185    0.0000 C   0  0
    9.0856    2.2729    0.0000 N   0  0
    6.4972   -0.7364    0.0000 C   0  0
    5.2007   -1.4909    0.0000 C   0  0
    5.2059   -2.9909    0.0000 C   0  0
    3.8990   -0.7455    0.0000 C   0  0
    2.6003   -1.4977    0.0000 O   0  0
    1.2990   -0.7500    0.0000 C   0  0
    1.2990    0.7500    0.0000 N   0  0
    0.0000    1.5000    0.0000 C   0  0
   -0.0031    3.0008    0.0000 N   0  0
   -1.3039    3.7494    0.0000 C   0  0  3  0  0  0
   -1.3092    5.2494    0.0000 C   0  0
   -2.6108    5.9949    0.0000 C   0  0
   -3.9073    5.2404    0.0000 C   0  0  3  0  0  0
   -5.2112    5.9836    0.0000 N   0  0
   -6.5072    5.2269    0.0000 C   0  0
   -7.8111    5.9701    0.0000 C   0  0
   -9.1076    5.2156    0.0000 C   0  0
  -10.4092    5.9611    0.0000 C   0  0
  -10.4145    7.4611    0.0000 C   0  0
  -11.7153    8.2097    0.0000 C   0  0
  -13.0130    7.4574    0.0000 N   0  0
  -11.7184    9.7097    0.0000 O   0  0
   -9.1180    8.2156    0.0000 C   0  0
   -7.8164    7.4702    0.0000 C   0  0
   -3.9021    3.7404    0.0000 C   0  0
   -2.6005    2.9949    0.0000 C   0  0
   -1.2990    0.7500    0.0000 N   0  0
   -1.2990   -0.7500    0.0000 C   0  0
   -2.4133   -1.7530    0.0000 C   0  0
   -1.8032   -3.1233    0.0000 C   0  0
   -0.3114   -2.9665    0.0000 S   0  0
    0.0000   -1.5000    0.0000 C   0  0
  1  2  1  0
  2  3  2  0
  3  4  1  0
  4  5  1  0
  5  6  3  0
  4  7  2  0
  7  8  1  0
  8  9  1  0
  8 10  2  0
 10  2  1  0
 10 11  1  0
 11 12  1  0
 12 13  2  0
 13 14  1  0
 14 15  1  0
 16 15  1  4
 16 17  1  0
 17 18  1  0
 18 19  1  0
 19 20  1  4
 20 21  1  0
 21 22  1  0
 22 23  2  0
 23 24  1  0
 24 25  2  0
 25 26  1  0
 26 27  1  0
 26 28  2  0
 25 29  1  0
 29 30  2  0
 30 22  1  0
 19 31  1  0
 31 32  1  0
 32 16  1  0
 14 33  2  0
 33 34  1  0
 34 35  1  0
 35 36  2  0
 36 37  1  0
 37 38  1  0
 38 12  1  0
 38 34  2  0
M  END
> <Smiles>
Cc1cc(C#N)cc(C)c1Oc1nc(NC2CCC(NCc3ccc(C(N)=O)cc3)CC2)nc2ccsc12

> <IC50_uM>
0.895

> <pIC50>
6.048176965

> <Activity>
1

$$$$

  SciTegic10102310092D

 22 24  0  0  0  0            999 V2000
    1.1583   -9.7884    0.0000 C   0  0
    0.6960   -8.3614    0.0000 C   0  0
   -0.7710   -8.0483    0.0000 C   0  0
   -1.2333   -6.6213    0.0000 C   0  0
   -0.2287   -5.5075    0.0000 C   0  0
   -0.6913   -4.0797    0.0000 S   0  0
   -2.1584   -3.7671    0.0000 O   0  0
   -1.6957   -5.1937    0.0000 O   0  0
    0.3114   -2.9665    0.0000 N   0  0
    1.8032   -3.1233    0.0000 C   0  0
    2.5532   -4.4223    0.0000 S   0  0
    2.4133   -1.7530    0.0000 N   0  0
    1.2990   -0.7500    0.0000 C   0  0
    1.2990    0.7500    0.0000 C   0  0
    0.0000    1.5000    0.0000 C   0  0
   -1.2990    0.7500    0.0000 C   0  0
   -2.5981    1.5000    0.0000 Cl  0  0
   -1.2990   -0.7500    0.0000 C   0  0
    0.0000   -1.5000    0.0000 C   0  0
    1.2383   -5.8206    0.0000 C   0  0
    1.7006   -7.2475    0.0000 C   0  0
    3.1676   -7.5606    0.0000 C   0  0
  1  2  1  0
  2  3  2  0
  3  4  1  0
  4  5  2  0
  5  6  1  0
  6  7  2  0
  6  8  2  0
  6  9  1  0
  9 10  1  0
 10 11  2  0
 10 12  1  0
 12 13  1  0
 13 14  2  0
 14 15  1  0
 15 16  2  0
 16 17  1  0
 16 18  1  0
 18 19  2  0
 19 13  1  0
 19  9  1  0
  5 20  1  0
 20 21  2  0
 21  2  1  0
 21 22  1  0
M  END
> <Smiles>
Cc1ccc(S(=O)(=O)n2c(=S)[nH]c3ccc(Cl)cc32)cc1C

> <IC50_uM>
0.9

> <pIC50>
6.045757491

> <Activity>
1

$$$$

  SciTegic10102310092D

 30 32  0  0  0  0            999 V2000
    2.5951   -3.0031    0.0000 C   0  0
    2.5973   -1.5031    0.0000 C   0  0
    3.8976   -0.7553    0.0000 C   0  0
    1.2990   -0.7500    0.0000 C   0  0
    1.2990    0.7500    0.0000 C   0  0
    2.5972    1.5031    0.0000 C   0  0
    2.5951    3.0039    0.0000 C   0  0
    3.8915    3.7585    0.0000 C   0  0
    3.8863    5.2585    0.0000 C   0  0
    2.5847    6.0040    0.0000 C   0  0
    1.2883    5.2495    0.0000 C   0  0
    1.2934    3.7495    0.0000 C   0  0
    0.0000    1.5000    0.0000 N   0  0
   -0.0031    3.0008    0.0000 C   0  0
   -1.3039    3.7494    0.0000 O   0  0
   -1.3070    5.2502    0.0000 C   0  0
   -2.6078    5.9988    0.0000 C   0  0
   -3.9044    5.2443    0.0000 C   0  0
   -5.2060    5.9898    0.0000 C   0  0
   -5.2112    7.4898    0.0000 C   0  0
   -3.9148    8.2443    0.0000 C   0  0
   -3.9199    9.7443    0.0000 Cl  0  0
   -2.6131    7.4988    0.0000 C   0  0
   -1.3167    8.2533    0.0000 F   0  0
   -1.2990    0.7500    0.0000 C   0  0
   -2.5981    1.5000    0.0000 O   0  0
   -1.2990   -0.7500    0.0000 N   0  0
   -2.5981   -1.5000    0.0000 O   0  0
    0.0000   -1.5000    0.0000 C   0  0
    0.0000   -3.0000    0.0000 O   0  0
  1  2  1  0
  2  3  1  0
  2  4  1  0
  4  5  2  0
  5  6  1  0
  6  7  1  0
  7  8  2  0
  8  9  1  0
  9 10  2  0
 10 11  1  0
 11 12  2  0
 12  7  1  0
  5 13  1  0
 13 14  1  0
 14 15  1  0
 15 16  1  0
 16 17  1  0
 17 18  2  0
 18 19  1  0
 19 20  2  0
 20 21  1  0
 21 22  1  0
 21 23  2  0
 23 17  1  0
 23 24  1  0
 13 25  1  0
 25 26  2  0
 25 27  1  0
 27 28  1  0
 27 29  1  0
 29  4  1  0
 29 30  2  0
M  END
> <Smiles>
CC(C)c1c(Cc2ccccc2)n(COCc2cccc(Cl)c2F)c(=O)n(O)c1=O

> <IC50_uM>
0.9

> <pIC50>
6.045757491

> <Activity>
1

$$$$

  SciTegic10102310092D

 35 39  0  0  0  0            999 V2000
    2.5981   -1.5000    0.0000 C   0  0
    1.2990   -0.7500    0.0000 C   0  0
    1.2990    0.7500    0.0000 C   0  0
    2.5972    1.5031    0.0000 O   0  0
    2.5951    3.0039    0.0000 C   0  0
    1.2934    3.7495    0.0000 C   0  0
    1.2883    5.2495    0.0000 C   0  0
    2.5847    6.0040    0.0000 C   0  0
    3.8863    5.2585    0.0000 C   0  0
    3.8915    3.7585    0.0000 C   0  0
    5.1954    3.0153    0.0000 O   0  0
    6.4915    3.7721    0.0000 C   0  0
    7.7954    3.0289    0.0000 C   0  0
    9.0914    3.7857    0.0000 N   0  0
    9.0810    5.2858    0.0000 C   0  0
   10.3748    6.0448    0.0000 C   0  0
   11.6791    5.3038    0.0000 C   0  0
   12.9729    6.0629    0.0000 O   0  0
   11.6895    3.8039    0.0000 N   0  0
   10.3957    3.0449    0.0000 C   0  0
   10.4062    1.5449    0.0000 O   0  0
    0.0000    1.5000    0.0000 C   0  0
   -1.2990    0.7500    0.0000 C   0  0
   -2.5973    1.5031    0.0000 C   0  0
   -2.5951    3.0039    0.0000 C   0  0
   -3.3408    4.2142    0.0000 C   0  0
   -1.8409    4.2089    0.0000 C   0  0
   -1.2990   -0.7500    0.0000 C   0  0
   -2.5981   -1.5000    0.0000 C   0  0
   -2.5981   -3.0000    0.0000 C   0  0
   -1.2990   -3.7500    0.0000 C   0  0
   -1.2990   -5.2508    0.0000 C   0  0
   -1.2990   -6.7508    0.0000 N   0  0
    0.0000   -3.0000    0.0000 C   0  0
    0.0000   -1.5000    0.0000 C   0  0
  1  2  1  0
  2  3  2  0
  3  4  1  0
  4  5  1  0
  5  6  2  0
  6  7  1  0
  7  8  2  0
  8  9  1  0
  9 10  2  0
 10  5  1  0
 10 11  1  0
 11 12  1  0
 12 13  1  0
 13 14  1  0
 14 15  1  0
 15 16  2  0
 16 17  1  0
 17 18  2  0
 17 19  1  0
 19 20  1  0
 20 14  1  0
 20 21  2  0
  3 22  1  0
 22 23  2  0
 23 24  1  0
 24 25  1  0
 25 26  1  0
 26 27  1  0
 27 25  1  0
 23 28  1  0
 28 29  2  0
 29 30  1  0
 30 31  2  0
 31 32  1  0
 32 33  3  0
 31 34  1  0
 34 35  2  0
 35  2  1  0
 35 28  1  0
M  END
> <Smiles>
Cc1c(Oc2ccccc2OCCn2ccc(=O)[nH]c2=O)cc(CC2CC2)c2ccc(C#N)cc12

> <IC50_uM>
0.9

> <pIC50>
6.045757491

> <Activity>
1

$$$$

  SciTegic10102310092D

 26 27  0  0  0  0            999 V2000
   -0.0041   -2.9953    0.0000 C   0  0
    1.2925   -3.7494    0.0000 C   0  0
   -0.0090   -4.4951    0.0000 C   0  0
    1.2873   -5.2494    0.0000 C   0  0
    2.5951   -3.0039    0.0000 N   0  0
    2.5973   -1.5031    0.0000 C   0  0
    1.2990   -0.7500    0.0000 C   0  0
    1.2990    0.7500    0.0000 C   0  0
    0.0000    1.5000    0.0000 C   0  0
   -1.2990    0.7500    0.0000 C   0  0
   -1.2990   -0.7500    0.0000 C   0  0
    0.0000   -1.5000    0.0000 C   0  0
    3.8933   -3.7570    0.0000 C   0  0
    5.1937   -3.0093    0.0000 O   0  0
    3.8912   -5.2578    0.0000 C   0  0
    5.1894   -6.0109    0.0000 O   0  0
    5.1873   -7.5117    0.0000 C   0  0
    3.8869   -8.2595    0.0000 O   0  0
    6.4855   -8.2648    0.0000 C   0  0
    6.6233   -9.7456    0.0000 C   0  0
    8.0906  -10.0575    0.0000 C   0  0
    8.8406   -8.7585    0.0000 C   0  0
   10.3303   -8.5988    0.0000 N   0  3
   10.9384   -7.2276    0.0000 O   0  0
   11.2141   -9.8108    0.0000 O   0  5
    7.8369   -7.6438    0.0000 O   0  0
  1  2  1  0
  2  3  1  0
  2  4  1  0
  2  5  1  0
  5  6  1  0
  6  7  1  0
  7  8  2  0
  8  9  1  0
  9 10  2  0
 10 11  1  0
 11 12  2  0
 12  7  1  0
  5 13  1  0
 13 14  2  0
 13 15  1  0
 15 16  1  0
 16 17  1  0
 17 18  2  0
 17 19  1  0
 19 20  2  0
 20 21  1  0
 21 22  2  0
 22 23  1  0
 23 24  2  0
 23 25  1  0
 22 26  1  0
 26 19  1  0
M  CHG  2  23   1  25  -1
M  END
> <Smiles>
CC(C)(C)N(Cc1ccccc1)C(=O)COC(=O)c1ccc([N+](=O)[O-])o1

> <IC50_uM>
0.9

> <pIC50>
6.045757491

> <Activity>
1

$$$$

  SciTegic10102310092D

 30 32  0  0  0  0            999 V2000
    2.5951   -3.0031    0.0000 C   0  0
    2.5973   -1.5031    0.0000 C   0  0
    3.8976   -0.7553    0.0000 C   0  0
    1.2990   -0.7500    0.0000 C   0  0
    1.2990    0.7500    0.0000 C   0  0
    2.5972    1.5031    0.0000 C   0  0
    2.5951    3.0039    0.0000 C   0  0
    3.8915    3.7585    0.0000 C   0  0
    3.8863    5.2585    0.0000 C   0  0
    2.5847    6.0040    0.0000 C   0  0
    1.2883    5.2495    0.0000 C   0  0
    1.2934    3.7495    0.0000 C   0  0
    0.0000    1.5000    0.0000 N   0  0
   -0.0031    3.0008    0.0000 C   0  0
   -1.3039    3.7494    0.0000 C   0  0
   -1.3070    5.2502    0.0000 C   0  0
   -2.6078    5.9988    0.0000 C   0  0
   -2.6109    7.4996    0.0000 C   0  0
   -3.9100    8.2496    0.0000 C   0  0
   -3.9100    9.7496    0.0000 C   0  0
   -2.6110   10.4997    0.0000 C   0  0
   -2.6111   11.9997    0.0000 F   0  0
   -1.3119    9.7497    0.0000 C   0  0
   -1.3119    8.2497    0.0000 C   0  0
   -1.2990    0.7500    0.0000 C   0  0
   -2.5981    1.5000    0.0000 O   0  0
   -1.2990   -0.7500    0.0000 N   0  0
   -2.5981   -1.5000    0.0000 O   0  0
    0.0000   -1.5000    0.0000 C   0  0
    0.0000   -3.0000    0.0000 O   0  0
  1  2  1  0
  2  3  1  0
  2  4  1  0
  4  5  2  0
  5  6  1  0
  6  7  1  0
  7  8  2  0
  8  9  1  0
  9 10  2  0
 10 11  1  0
 11 12  2  0
 12  7  1  0
  5 13  1  0
 13 14  1  0
 14 15  1  0
 15 16  1  0
 16 17  1  0
 17 18  1  0
 18 19  2  0
 19 20  1  0
 20 21  2  0
 21 22  1  0
 21 23  1  0
 23 24  2  0
 24 18  1  0
 13 25  1  0
 25 26  2  0
 25 27  1  0
 27 28  1  0
 27 29  1  0
 29  4  1  0
 29 30  2  0
M  END
> <Smiles>
CC(C)c1c(Cc2ccccc2)n(CCCCc2ccc(F)cc2)c(=O)n(O)c1=O

> <IC50_uM>
0.9

> <pIC50>
6.045757491

> <Activity>
1

$$$$

  SciTegic10102310092D

 36 39  0  0  0  0            999 V2000
    3.9004   -8.2515    0.0000 C   0  0
    2.6000   -7.5039    0.0000 O   0  0
    2.5964   -6.0030    0.0000 C   0  0
    1.2970   -5.2535    0.0000 C   0  0
   -0.0017   -6.0040    0.0000 C   0  0
    1.2965   -3.7535    0.0000 C   0  0
    2.5952   -3.0030    0.0000 C   0  0
    2.5977   -1.5021    0.0000 C   0  0
    3.8983   -0.7531    0.0000 C   0  0
    5.1977   -1.5040    0.0000 C   0  0
    6.4982   -0.7549    0.0000 C   0  0
    7.7977   -1.5058    0.0000 C   0  0
    9.0982   -0.7568    0.0000 C   0  0
   10.4502   -1.3764    0.0000 N   0  0
   11.4528   -0.2607    0.0000 N   0  0
   10.7015    1.0376    0.0000 C   0  0
   11.3102    2.4086    0.0000 C   0  0
    9.2346    0.7242    0.0000 O   0  0
    1.2990   -0.7500    0.0000 C   0  0
    1.2990    0.7500    0.0000 C   0  0
    0.0000    1.5000    0.0000 C   0  0
    0.0000    3.0000    0.0000 C   0  0
   -1.2990    0.7500    0.0000 C   0  0
   -2.7248    1.2135    0.0000 O   0  0
   -3.6065    0.0000    0.0000 C   0  0
   -5.1065    0.0000    0.0000 O   0  0
   -2.7248   -1.2135    0.0000 N   0  0
   -3.1882   -2.6402    0.0000 C   0  0
   -1.2990   -0.7500    0.0000 C   0  0
    0.0000   -1.5000    0.0000 C   0  0
    3.8946   -3.7526    0.0000 C   0  0
    3.8951   -5.2526    0.0000 C   0  0
    5.1967   -5.9998    0.0000 C   0  0
    5.1999   -7.4998    0.0000 O   0  0
    6.4951   -5.2471    0.0000 S   0  0
    7.7960   -5.9939    0.0000 C   0  0
  1  2  1  0
  2  3  1  0
  3  4  2  0
  4  5  1  0
  4  6  1  0
  6  7  2  0
  7  8  1  0
  8  9  2  0
  9 10  1  0
 10 11  1  0
 11 12  1  0
 12 13  1  0
 13 14  2  0
 14 15  1  0
 15 16  2  0
 16 17  1  0
 16 18  1  0
 18 13  1  0
  8 19  1  0
 19 20  2  0
 20 21  1  0
 21 22  1  0
 21 23  2  0
 23 24  1  0
 24 25  1  0
 25 26  2  0
 25 27  1  0
 27 28  1  0
 27 29  1  0
 29 23  1  0
 29 30  2  0
 30 19  1  0
  7 31  1  0
 31 32  2  0
 32  3  1  0
 32 33  1  0
 33 34  2  0
 33 35  1  0
 35 36  1  0
M  END
> <Smiles>
COc1c(C)cc(/C(=C\CCCc2nnc(C)o2)c2cc(C)c3oc(=O)n(C)c3c2)cc1C(=O)SC

> <IC50_uM>
0.91

> <pIC50>
6.040958608

> <Activity>
1

$$$$

  SciTegic10102310092D

 16 15  0  0  0  0            999 V2000
    5.2000    0.0000    0.0000 C   0  0
    5.2000   -1.5000    0.0000 O   0  0
    3.9000    0.7500    0.0000 C   0  0
    2.6000    0.0000    0.0000 C   0  0
    1.3000    0.7500    0.0000 C   0  0
    1.3000    2.2500    0.0000 O   0  0
    0.0007    0.0004    0.0000 O   0  0
    6.5000    0.7500    0.0000 N   0  0
    7.7999    0.0000    0.0000 N   0  0
    9.0999    0.7500    0.0000 C   0  0
    9.0999    2.2500    0.0000 O   0  0
   10.3999    0.0000    0.0000 C   0  0
   11.6999    0.7500    0.0000 C   0  0
   12.9999    0.0000    0.0000 C   0  0
   12.9999   -1.5000    0.0000 O   0  0
   14.2992    0.7496    0.0000 O   0  0
  1  2  2  0
  1  3  1  0
  3  4  2  0
  4  5  1  0
  5  6  1  0
  5  7  2  0
  1  8  1  0
  8  9  1  0
  9 10  1  0
 10 11  2  0
 10 12  1  0
 12 13  2  0
 13 14  1  0
 14 15  1  0
 14 16  2  0
M  END
> <Smiles>
C(=O)(\C=C\C(O)=O)NNC(=O)\C=C\C(O)=O

> <IC50_uM>
0.912010839

> <pIC50>
6.04

> <Activity>
1

$$$$

  SciTegic10102310092D

 12 13  0  0  0  0            999 V2000
    4.2566    0.5871    0.0000 O   0  0
    3.9511   -0.8815    0.0000 C   0  0
    4.9531   -1.9978    0.0000 O   0  0
    4.2010   -3.2956    0.0000 C   0  0
    2.7343   -2.9815    0.0000 C   0  0
    2.5987   -1.5004    0.0000 N   0  0
    1.2990   -0.7500    0.0000 C   0  0
    1.2990    0.7500    0.0000 C   0  0
    0.0000    1.5000    0.0000 C   0  0
   -1.2990    0.7500    0.0000 C   0  0
   -1.2990   -0.7500    0.0000 C   0  0
    0.0000   -1.5000    0.0000 C   0  0
  1  2  2  0
  2  3  1  0
  3  4  1  0
  4  5  1  0
  5  6  1  0
  6  2  1  0
  6  7  1  0
  7  8  2  0
  8  9  1  0
  9 10  2  0
 10 11  1  0
 11 12  2  0
 12  7  1  0
M  END
> <Smiles>
O=C1OCCN1c2ccccc2

> <IC50_uM>
0.912010839

> <pIC50>
6.04

> <Activity>
1

$$$$

  SciTegic10102310092D

 16 15  0  0  0  0            999 V2000
    3.9000    0.7500    0.0000 C   0  0  3  0  0  0
    3.9031    2.2508    0.0000 C   0  0
    2.6053    3.0031    0.0000 O   0  0
    5.2032    2.9990    0.0000 O   0  0
    2.6000    0.0000    0.0000 C   0  0
    1.3000    0.7500    0.0000 C   0  0
    0.0007    0.0004    0.0000 C   0  0
    5.2000    0.0000    0.0000 C   0  0
    6.5000    0.7500    0.0000 C   0  0
    7.7999    0.0000    0.0000 C   0  0  3  0  0  0
    7.8030   -1.5008    0.0000 C   0  0
    6.5053   -2.2531    0.0000 O   0  0
    9.1031   -2.2490    0.0000 O   0  0
    9.0999    0.7500    0.0000 C   0  0
   10.3999    0.0000    0.0000 C   0  0
   11.6992    0.7496    0.0000 C   0  0
  1  2  1  0
  2  3  1  0
  2  4  2  0
  1  5  1  4
  5  6  1  0
  6  7  2  0
  1  8  1  0
  8  9  1  0
 10  9  1  4
 10 11  1  0
 11 12  1  0
 11 13  2  0
 10 14  1  0
 14 15  1  0
 15 16  2  0
M  END
> <Smiles>
C(C(O)=O)(CC=C)CCC(C(O)=O)CC=C

> <IC50_uM>
0.912010839

> <pIC50>
6.04

> <Activity>
1

$$$$

  SciTegic10102310092D

 12 12  0  0  0  0            999 V2000
    2.6003   -1.4977    0.0000 C   0  0
    1.2990   -0.7500    0.0000 N   0  0
    1.2990    0.7500    0.0000 N   0  0
    0.0000    1.5000    0.0000 C   0  0
   -1.2990    0.7500    0.0000 C   0  0
   -2.5981    1.5000    0.0000 Cl  0  0
   -1.2990   -0.7500    0.0000 C   0  0
   -2.5981   -1.5000    0.0000 Cl  0  0
    0.0000   -1.5000    0.0000 C   0  0
    0.0000   -3.0000    0.0000 O   0  0
    3.8990   -0.7455    0.0000 C   0  0
    5.1996   -1.4928    0.0000 Cl  0  0
  1  2  1  0
  2  3  1  0
  3  4  2  0
  4  5  1  0
  5  6  1  0
  5  7  2  0
  7  8  1  0
  7  9  1  0
  9  2  1  0
  9 10  2  0
  1 11  1  0
 11 12  1  0
M  END
> <Smiles>
C(N1N=CC(Cl)=C(Cl)C1=O)CCl

> <IC50_uM>
0.912010839

> <pIC50>
6.04

> <Activity>
1

$$$$

  SciTegic10102310092D

 12 13  0  0  0  0            999 V2000
    2.5981   -1.5000    0.0000 O   0  0
    1.2990   -0.7500    0.0000 C   0  0
    1.2990    0.7500    0.0000 N   0  0
    0.0000    1.5000    0.0000 C   0  0
   -1.2990    0.7500    0.0000 C   0  0
   -1.2990   -0.7500    0.0000 C   0  0
   -2.4133   -1.7530    0.0000 C   0  0
   -1.8032   -3.1233    0.0000 O   0  0
   -0.3114   -2.9665    0.0000 C   0  0
    0.6924   -4.0811    0.0000 O   0  0
    0.0000   -1.5000    0.0000 C   0  0
    0.0000    3.0000    0.0000 C   0  0
  1  2  1  0
  2  3  2  0
  3  4  1  0
  4  5  2  0
  5  6  1  0
  6  7  1  0
  7  8  1  0
  8  9  1  0
  9 10  2  0
  6 11  2  0
 11  2  1  0
 11  9  1  0
  4 12  1  0
M  END
> <Smiles>
Oc1nc(cc(COC2=O)c12)C

> <IC50_uM>
0.912010839

> <pIC50>
6.04

> <Activity>
1

$$$$

  SciTegic10102310092D

 15 17  0  0  0  0            999 V2000
   -0.6393   -3.1910    0.0000 O   0  0
    0.8005   -2.7705    0.0000 S   0  0
    2.0885   -2.0016    0.0000 C   0  0
    1.2990   -0.7500    0.0000 C   0  0  3  0  0  0
    2.7408   -0.3333    0.0000 N   0  0
    3.9037   -1.2604    0.0000 C   0  0
    5.1454   -0.4190    0.0000 C   0  0
    4.7289    1.0220    0.0000 C   0  0
    3.2298    1.0712    0.0000 C   0  0
    1.2990    0.7500    0.0000 C   0  0
    0.0000    1.5000    0.0000 C   0  0
   -1.2990    0.7500    0.0000 C   0  0
   -1.2990   -0.7500    0.0000 C   0  0
    0.0000   -1.5000    0.0000 C   0  0  3  0  0  0
    1.8932   -3.7981    0.0000 O   0  0
  1  2  2  0
  2  3  1  0
  3  4  1  0
  4  5  1  4
  5  6  1  0
  6  7  1  0
  7  8  1  0
  8  9  1  0
  9  5  1  0
  4 10  1  0
 10 11  1  0
 11 12  1  0
 12 13  1  0
  4 14  1  0
 14  2  1  0
 14 13  1  4
  2 15  2  0
M  END
> <Smiles>
O=S1(CC(N2CCCC2)(CCCC3)C13)=O

> <IC50_uM>
0.912010839

> <pIC50>
6.04

> <Activity>
1

$$$$

  SciTegic10102310092D

 12 12  0  0  0  0            999 V2000
    1.6307   -2.2444    0.0000 S   0  0
    0.7500   -1.0323    0.0000 C   0  0
    1.2135    0.3943    0.0000 N   0  0
    0.0000    1.2760    0.0000 C   0  0
   -1.2135    0.3943    0.0000 N   0  0
   -0.7500   -1.0323    0.0000 C   0  0
   -1.6317   -2.2458    0.0000 N   0  0
    2.6401    0.8578    0.0000 C   0  0
    1.0201   -3.6145    0.0000 O   0  0
    2.5118   -3.4583    0.0000 O   0  0
    3.1234   -2.0885    0.0000 N   0  0
    4.0050   -3.3020    0.0000 C   0  0
  1  2  1  0
  2  3  1  0
  3  4  1  0
  4  5  2  0
  5  6  1  0
  6  2  2  0
  6  7  1  0
  3  8  1  0
  1  9  2  0
  1 10  2  0
  1 11  1  0
 11 12  1  0
M  END
> <Smiles>
S(c1n(cnc1N)C)(=O)(=O)NC

> <IC50_uM>
0.912010839

> <pIC50>
6.04

> <Activity>
1

$$$$

  SciTegic10102310092D

 14 15  0  0  0  0            999 V2000
    2.5981   -1.5000    0.0000 O   0  0
    1.2990   -0.7500    0.0000 C   0  0
    1.2990    0.7500    0.0000 N   0  0
    0.0000    1.5000    0.0000 N   0  0
   -1.2990    0.7500    0.0000 C   0  0
   -2.5973    1.5031    0.0000 O   0  0
   -2.5951    3.0031    0.0000 C   0  0
   -1.2990   -0.7500    0.0000 C   0  0
   -2.5981   -1.5000    0.0000 N   0  0
   -2.5981   -3.0000    0.0000 C   0  0
   -1.2990   -3.7500    0.0000 C   0  0
    0.0000   -3.0000    0.0000 C   0  0
    0.0000   -1.5000    0.0000 C   0  0
    2.5981    1.5000    0.0000 C   0  0
  1  2  2  0
  2  3  1  0
  3  4  1  0
  4  5  2  0
  5  6  1  0
  6  7  1  0
  5  8  1  0
  8  9  2  0
  9 10  1  0
 10 11  2  0
 11 12  1  0
  8 13  1  0
 13  2  1  0
 13 12  2  0
  3 14  1  0
M  END
> <Smiles>
O=C1N(N=C(OC)c(nccc2)c12)C

> <IC50_uM>
0.912010839

> <pIC50>
6.04

> <Activity>
1

$$$$

  SciTegic10102310092D

 16 15  0  0  0  0            999 V2000
    6.5000    0.7500    0.0000 C   0  0  3  0  0  0
    6.5000    2.2500    0.0000 O   0  0
    5.2000    0.0000    0.0000 C   0  0
    5.2000   -1.5000    0.0000 O   0  0
    3.9000    0.7500    0.0000 N   0  0
    2.6000    0.0000    0.0000 C   0  0
    1.3000    0.7500    0.0000 C   0  0
    0.0007    0.0004    0.0000 C   0  0
    7.7999    0.0000    0.0000 C   0  0  3  0  0  0
    7.7999   -1.5000    0.0000 O   0  0
    9.0999    0.7500    0.0000 C   0  0
    9.0999    2.2500    0.0000 O   0  0
   10.3999    0.0000    0.0000 N   0  0
   11.6999    0.7500    0.0000 C   0  0
   12.9999    0.0000    0.0000 C   0  0
   14.2992    0.7496    0.0000 C   0  0
  1  2  1  4
  1  3  1  0
  3  4  2  0
  3  5  1  0
  5  6  1  0
  6  7  1  0
  7  8  2  0
  1  9  1  0
  9 10  1  4
  9 11  1  0
 11 12  2  0
 11 13  1  0
 13 14  1  0
 14 15  1  0
 15 16  2  0
M  END
> <Smiles>
C(O)(C(=O)NCC=C)C(O)C(=O)NCC=C

> <IC50_uM>
0.912010839

> <pIC50>
6.04

> <Activity>
1

$$$$

  SciTegic10102310092D

 15 16  0  0  0  0            999 V2000
    2.5973   -1.5031    0.0000 O   0  0
    1.2990   -0.7500    0.0000 C   0  0
    1.2990    0.7500    0.0000 C   0  0
    0.0000    1.5000    0.0000 C   0  0
   -1.2990    0.7500    0.0000 C   0  0
   -2.6003    1.4977    0.0000 O   0  0
   -3.8983    0.7459    0.0000 C   0  0
   -1.2990   -0.7500    0.0000 C   0  0
    0.0000   -1.5000    0.0000 C   0  0
    2.5951   -3.0039    0.0000 P   0  0  3  0  0  0
    3.8056   -3.8679    0.0000 O   0  0
    3.3372   -5.2929    0.0000 C   0  0  3  0  0  0
    4.2146   -6.5095    0.0000 C   0  0
    1.8372   -5.2877    0.0000 C   0  0
    1.3786   -3.8595    0.0000 O   0  0
  1  2  1  0
  2  3  2  0
  3  4  1  0
  4  5  2  0
  5  6  1  0
  6  7  1  0
  5  8  1  0
  8  9  2  0
  9  2  1  0
 10  1  1  4
 10 11  1  0
 11 12  1  0
 12 13  1  4
 12 14  1  0
 14 15  1  0
 15 10  1  0
M  END
> <Smiles>
O(c1ccc(OC)cc1)P2OC(C)CO2

> <IC50_uM>
0.912010839

> <pIC50>
6.04

> <Activity>
1

$$$$

  SciTegic10102310092D

 16 17  0  0  0  0            999 V2000
   -2.3910   -1.2099    0.0000 O   0  0
   -1.5043    0.0000    0.0000 C   0  0
    0.0000    0.0000    0.0000 N   0  0
    0.4513    1.4291    0.0000 C   0  0
    1.8757    1.8992    0.0000 O   0  0
   -0.7521    2.3016    0.0000 N   0  0
   -0.7521    3.8016    0.0000 C   0  0
   -1.9556    1.4291    0.0000 C   0  0  3  0  0  0
   -2.4219    2.8581    0.0000 N   0  0
   -3.9262    2.8581    0.0000 C   0  0
   -4.8071    4.0722    0.0000 O   0  0
   -4.3925    1.4291    0.0000 N   0  0
   -5.8197    0.9673    0.0000 C   0  0
   -3.1740    0.5415    0.0000 C   0  0
   -3.1740   -0.9585    0.0000 O   0  0
    0.8867   -1.2099    0.0000 C   0  0
  1  2  2  0
  2  3  1  0
  3  4  1  0
  4  5  2  0
  4  6  1  0
  6  7  1  0
  6  8  1  0
  8  2  1  0
  8  9  1  4
  9 10  1  0
 10 11  2  0
 10 12  1  0
 12 13  1  0
 12 14  1  0
 14  8  1  0
 14 15  2  0
  3 16  1  0
M  END
> <Smiles>
O=C1N(C(=O)N(C)C12NC(=O)N(C)C2=O)C

> <IC50_uM>
0.912010839

> <pIC50>
6.04

> <Activity>
1

$$$$

  SciTegic10102310092D

 17 18  0  0  0  0            999 V2000
    2.5973   -1.5031    0.0000 C   0  0
    1.2990   -0.7500    0.0000 C   0  0
    1.2990    0.7500    0.0000 C   0  0
    0.0000    1.5000    0.0000 C   0  0
   -1.2990    0.7500    0.0000 C   0  0
   -2.5981    1.5000    0.0000 N   0  0
   -1.2990   -0.7500    0.0000 C   0  0
    0.0000   -1.5000    0.0000 C   0  0
    3.8976   -0.7553    0.0000 O   0  0
    2.5951   -3.0039    0.0000 N   0  0
    3.8933   -3.7570    0.0000 C   0  0
    5.1925   -3.0070    0.0000 C   0  0
    6.4915   -3.7571    0.0000 C   0  0
    6.4915   -5.2571    0.0000 C   0  0
    5.1924   -6.0070    0.0000 C   0  0
    3.8934   -5.2570    0.0000 C   0  0
    2.5944   -6.0070    0.0000 N   0  0
  1  2  1  0
  2  3  2  0
  3  4  1  0
  4  5  2  0
  5  6  1  0
  5  7  1  0
  7  8  2  0
  8  2  1  0
  1  9  2  0
  1 10  1  0
 10 11  1  0
 11 12  2  0
 12 13  1  0
 13 14  2  0
 14 15  1  0
 15 16  2  0
 16 11  1  0
 16 17  1  0
M  END
> <Smiles>
C(c1ccc(N)cc1)(=O)Nc2ccccc2N

> <IC50_uM>
0.912010839

> <pIC50>
6.04

> <Activity>
1

$$$$

  SciTegic10102310092D

 16 17  0  0  0  0            999 V2000
   -0.6890   -4.0818    0.0000 C   0  0
    0.3114   -2.9665    0.0000 N   0  0
    1.8032   -3.1233    0.0000 C   0  0
    2.4133   -1.7530    0.0000 N   0  0
    1.2990   -0.7500    0.0000 C   0  0
    1.2990    0.7500    0.0000 C   0  0
    0.0000    1.5000    0.0000 N   0  0
   -1.2990    0.7500    0.0000 C   0  0
   -2.5981    1.5000    0.0000 F   0  0
   -1.2990   -0.7500    0.0000 N   0  0
    2.5981    1.5000    0.0000 N   0  0
    0.0000   -1.5000    0.0000 C   0  0
   -0.2234   -5.5086    0.0000 C   0  0  3  0  0  0
    1.2443   -5.8182    0.0000 O   0  0
   -1.2256   -6.6258    0.0000 C   0  0
   -0.7603   -8.0518    0.0000 O   0  0
  1  2  1  0
  2  3  1  0
  3  4  2  0
  4  5  1  0
  5  6  2  0
  6  7  1  0
  7  8  2  0
  8  9  1  0
  8 10  1  0
  6 11  1  0
  5 12  1  0
 12  2  1  0
 12 10  2  0
  1 13  1  0
 13 14  1  4
 13 15  1  0
 15 16  1  0
M  END
> <Smiles>
C(n1cnc(c(nc(F)n2)N)c12)C(O)CO

> <IC50_uM>
0.912010839

> <pIC50>
6.04

> <Activity>
1

$$$$

  SciTegic10102310092D

 17 20  0  0  0  0            999 V2000
    0.0148   -3.2499    0.0000 O   0  0
    0.0000   -1.7500    0.0000 C   0  0
   -1.3500   -0.9800    0.0000 C   0  0
   -1.3500    0.5300    0.0000 C   0  0
    0.0000    1.3000    0.0000 C   0  0
    0.0148    2.7999    0.0000 O   0  0
    1.2900    0.5300    0.0000 N   0  0
    2.4000    1.1200    0.0000 C   0  0  3  0  0  0
    2.9200    2.7600    0.0000 C   0  0
    2.8900   -0.2000    0.0000 C   0  0  3  0  0  0
    4.0500    0.5400    0.0000 C   0  0
    4.0500   -1.0600    0.0000 C   0  0
    1.2900   -0.9800    0.0000 N   0  0
   -2.6600    1.3000    0.0000 C   0  0
   -3.9800    0.5300    0.0000 C   0  0
   -3.9800   -0.9800    0.0000 C   0  0
   -2.6600   -1.7500    0.0000 C   0  0
  1  2  2  0
  2  3  1  0
  3  4  2  0
  4  5  1  0
  5  6  2  0
  5  7  1  0
  7  8  1  0
  8  9  1  4
 10  9  1  4
  8 11  1  0
 11 12  1  0
 12 10  1  0
  7 13  1  0
 13  2  1  0
 13 10  1  0
  4 14  1  0
 14 15  2  0
 15 16  1  0
 16 17  2  0
 17  3  1  0
M  END
> <Smiles>
O=C1c2c(C(=O)N(C(CC34)CC3)N14)cccc2

> <IC50_uM>
0.912010839

> <pIC50>
6.04

> <Activity>
1

$$$$

  SciTegic10102310092D

 15 16  0  0  0  0            999 V2000
    0.7500   -1.0323    0.0000 N   0  0
    1.2135    0.3943    0.0000 C   0  0
    2.6375    0.8603    0.0000 S   0  0
    2.9474    2.3287    0.0000 C   0  0
    4.3111    2.9223    0.0000 C   0  0
    5.6070    2.1705    0.0000 N   0  3
    5.6033    0.6705    0.0000 O   0  5
    6.9081    2.9168    0.0000 O   0  0
    4.1491    4.4135    0.0000 N   0  0
    2.6808    4.7202    0.0000 C   0  0
    1.9353    3.4185    0.0000 N   0  0
    0.4451    3.2477    0.0000 C   0  0
    0.0000    1.2760    0.0000 N   0  0
   -1.2135    0.3943    0.0000 C   0  0
   -0.7500   -1.0323    0.0000 N   0  0
  1  2  2  0
  2  3  1  0
  3  4  1  0
  4  5  2  0
  5  6  1  0
  6  7  1  0
  6  8  2  0
  5  9  1  0
  9 10  2  0
 10 11  1  0
 11  4  1  0
 11 12  1  0
  2 13  1  0
 13 14  1  0
 14 15  2  0
 15  1  1  0
M  CHG  2   6   1   7  -1
M  END
> <Smiles>
n1c(Sc2c([N+]([O-])=O)ncn2C)[nH]cn1

> <IC50_uM>
0.912010839

> <pIC50>
6.04

> <Activity>
1

$$$$

  SciTegic10102310092D

 15 16  0  0  0  0            999 V2000
    0.0000    0.0000    0.0000 C   0  0
   -0.7526    1.2945    0.0000 C   0  0
   -2.2578    1.2945    0.0000 C   0  0
   -3.0105    0.0000    0.0000 C   0  0  3  0  0  0
   -3.7631   -1.2945    0.0000 S   0  0  3  0  0  0
   -3.2644   -2.1613    0.0000 O   0  0
   -5.2683   -1.2945    0.0000 C   0  0
   -6.0209    0.0000    0.0000 C   0  0
   -7.5209    0.0000    0.0000 C   0  0
   -5.2683    1.2945    0.0000 C   0  0
   -6.0163    2.5947    0.0000 C   0  0
   -3.7631    1.2945    0.0000 C   0  0
   -2.2578   -1.2945    0.0000 C   0  0
   -2.7565   -2.1613    0.0000 O   0  0
   -0.7526   -1.2945    0.0000 C   0  0
  1  2  1  0
  2  3  1  0
  4  3  1  4
  4  5  1  0
  5  6  2  0
  5  7  1  4
  7  8  1  0
  8  9  1  0
  8 10  2  0
 10 11  1  0
 10 12  1  0
 12  4  1  0
  4 13  1  0
 13 14  2  0
 13 15  1  0
 15  1  1  0
M  END
> <Smiles>
C1CCC2(S(=O)CC(C)=C(C)C2)C(=O)C1

> <IC50_uM>
0.912010839

> <pIC50>
6.04

> <Activity>
1

$$$$

  SciTegic10102310092D

 16 15  0  0  0  0            999 V2000
    2.6000    0.0000    0.0000 C   0  0
    1.3000    0.7500    0.0000 C   0  0
    0.0007    0.0004    0.0000 C   0  0
    3.9000    0.7500    0.0000 C   0  0  3  0  0  0
    5.2000    0.0000    0.0000 C   0  0
    6.5000    0.7500    0.0000 C   0  0  3  0  0  0
    7.7999    0.0000    0.0000 C   0  0
    9.0999    0.7500    0.0000 C   0  0
   10.3992    0.0004    0.0000 C   0  0
    6.5000    2.2507    0.0000 N   0  0
    7.7989    3.0026    0.0000 C   0  0
    9.0992    2.2548    0.0000 C   0  0
    5.1990    2.9991    0.0000 C   0  0
    4.3334    2.4982    0.0000 C   0  0
    5.2000   -1.5000    0.0000 O   0  0
    3.9000    1.7500    0.0000 O   0  0
  1  2  1  0
  2  3  1  0
  1  4  1  0
  4  5  1  0
  5  6  1  0
  6  7  1  4
  7  8  1  0
  8  9  1  0
  6 10  1  0
 10 11  1  0
 11 12  1  0
 10 13  1  0
 13 14  1  0
  5 15  2  0
  4 16  1  4
M  END
> <Smiles>
C(CC)C(C(C(CCC)N(CC)CC)=O)O

> <IC50_uM>
0.912010839

> <pIC50>
6.04

> <Activity>
1

$$$$

  SciTegic10102310092D

 13 12  0  0  0  0            999 V2000
    9.0999    2.2500    0.0000 N   0  0
    9.0999    0.7500    0.0000 C   0  0
    7.7999    0.0000    0.0000 N   0  0
    6.5000    0.7500    0.0000 N   0  0
    5.2000    0.0000    0.0000 C   0  0
    3.9000    0.7500    0.0000 C   0  0
    2.6000    0.0000    0.0000 C   0  0
    1.3000    0.7500    0.0000 C   0  0
    1.3000    2.2500    0.0000 O   0  0
    0.0007    0.0004    0.0000 O   0  0
    2.6000   -1.5000    0.0000 Cl  0  0
    3.9000    2.2500    0.0000 Cl  0  0
   10.3992    0.0004    0.0000 O   0  0
  1  2  1  0
  2  3  1  0
  3  4  1  0
  4  5  1  0
  5  6  1  0
  6  7  2  0
  7  8  1  0
  8  9  1  0
  8 10  2  0
  7 11  1  0
  6 12  1  0
  2 13  2  0
M  END
> <Smiles>
NC(NNC\C(=C(\C(O)=O)/Cl)\Cl)=O

> <IC50_uM>
0.912010839

> <pIC50>
6.04

> <Activity>
1

$$$$

  SciTegic10102310092D

 16 18  0  0  0  0            999 V2000
   -0.1120   -2.3234    0.0000 C   0  0  3  0  0  0
    0.9282   -3.4146    0.0000 C   0  0
    2.3670   -2.9903    0.0000 N   0  0
    0.7500   -1.0323    0.0000 C   0  0  3  0  0  0
    1.2135    0.3943    0.0000 C   0  0
    0.0000    1.2760    0.0000 C   0  0
   -1.2135    0.3943    0.0000 C   0  0
   -0.7500   -1.0323    0.0000 C   0  0  3  0  0  0
   -2.1945   -1.3754    0.0000 C   0  0
   -3.2269   -0.2872    0.0000 O   0  0
   -1.5996   -2.8059    0.0000 N   0  0
   -1.2809   -4.3121    0.0000 C   0  0
   -2.3816   -5.3312    0.0000 C   0  0
   -3.8145   -4.8874    0.0000 O   0  0
   -4.1467   -3.4247    0.0000 C   0  0
   -3.0460   -2.4056    0.0000 C   0  0
  1  2  1  4
  2  3  1  0
  1  4  1  0
  4  5  1  4
  5  6  1  0
  6  7  1  0
  4  8  1  0
  8  1  1  0
  8  7  1  0
  8  9  1  4
  9 10  1  0
  1 11  1  0
 11 12  1  0
 12 13  1  0
 13 14  1  0
 14 15  1  0
 15 16  1  0
 16 11  1  0
M  END
> <Smiles>
C1(CN)(C(CCC2)C12CO)N3CCOCC3

> <IC50_uM>
0.912010839

> <pIC50>
6.04

> <Activity>
1

$$$$

  SciTegic10102310092D

 16 16  0  0  0  0            999 V2000
    1.5505   -8.7881    0.0000 C   0  0
    2.1626   -7.4186    0.0000 C   0  0
    1.2830   -6.2026    0.0000 C   0  0
    1.8954   -4.8324    0.0000 N   0  0
    1.0157   -3.6164    0.0000 C   0  0
    1.6281   -2.2462    0.0000 O   0  0
    0.7500   -1.0323    0.0000 N   0  0
    1.2135    0.3943    0.0000 C   0  0
    2.6401    0.8578    0.0000 O   0  0
    0.0000    1.2760    0.0000 C   0  0
   -1.2135    0.3943    0.0000 C   0  0
   -0.7500   -1.0323    0.0000 C   0  0
   -1.6317   -2.2458    0.0000 O   0  0
   -0.4763   -3.7706    0.0000 O   0  0
    3.3886   -4.6812    0.0000 N   0  0
    4.2664   -5.8976    0.0000 O   0  0
  1  2  2  0
  2  3  1  0
  3  4  1  0
  4  5  1  0
  5  6  1  0
  6  7  1  0
  7  8  1  0
  8  9  2  0
  8 10  1  0
 10 11  1  0
 11 12  1  0
 12  7  1  0
 12 13  2  0
  5 14  2  0
  4 15  1  0
 15 16  2  0
M  END
> <Smiles>
C=CCN(C(ON1C(=O)CCC1=O)=O)N=O

> <IC50_uM>
0.912010839

> <pIC50>
6.04

> <Activity>
1

$$$$

  SciTegic10102310092D

 12 11  0  0  0  0            999 V2000
    0.0007    0.0004    0.0000 C   0  0
    1.3000    0.7500    0.0000 C   0  0
    2.6000    1.5000    0.0000 C   0  0
    3.9000    0.7500    0.0000 N   0  0
    5.2000    1.5000    0.0000 C   0  0
    6.5000    0.7500    0.0000 N   0  0
    7.7999    1.5000    0.0000 C   0  0
    9.0999    0.7500    0.0000 C   0  0
   10.3992    0.0004    0.0000 C   0  0
    5.2000    3.0000    0.0000 O   0  0
    3.8969   -0.7508    0.0000 N   0  0
    2.5968   -1.4990    0.0000 O   0  0
  1  2  3  0
  2  3  1  0
  3  4  1  0
  4  5  1  0
  5  6  1  0
  6  7  1  0
  7  8  1  0
  8  9  3  0
  5 10  2  0
  4 11  1  0
 11 12  2  0
M  END
> <Smiles>
C#CCN(C(NCC#C)=O)N=O

> <IC50_uM>
0.912010839

> <pIC50>
6.04

> <Activity>
1

$$$$

  SciTegic10102310092D

 16 16  0  0  0  0            999 V2000
    1.2990   -0.7500    0.0000 C   0  0
    1.2990    0.7500    0.0000 N   0  0
    0.0000    1.5000    0.0000 C   0  0
   -1.2990    0.7500    0.0000 C   0  0
   -2.5973    1.5031    0.0000 C   0  0
   -2.5951    3.0039    0.0000 N   0  0
   -3.8933    3.7570    0.0000 C   0  0
   -3.8912    5.2578    0.0000 O   0  0
   -5.1894    6.0109    0.0000 C   0  0
   -5.1873    7.5109    0.0000 C   0  0
   -5.1937    3.0092    0.0000 O   0  0
   -3.8976    0.7553    0.0000 O   0  0
   -1.2990   -0.7500    0.0000 C   0  0
   -2.5981   -1.5000    0.0000 O   0  0
    0.0000   -1.5000    0.0000 N   0  0
    2.5981   -1.5000    0.0000 O   0  0
  1  2  2  0
  2  3  1  0
  3  4  2  0
  4  5  1  0
  5  6  1  0
  6  7  1  0
  7  8  1  0
  8  9  1  0
  9 10  1  0
  7 11  2  0
  5 12  2  0
  4 13  1  0
 13 14  1  0
 13 15  2  0
 15  1  1  0
  1 16  1  0
M  END
> <Smiles>
c1(ncc(C(NC(OCC)=O)=O)c(O)n1)O

> <IC50_uM>
0.912010839

> <pIC50>
6.04

> <Activity>
1

$$$$

  SciTegic10102310092D

 17 19  0  0  0  0            999 V2000
    5.7487   -3.6252    0.0000 C   0  0
    5.2007   -2.2289    0.0000 C   0  0
    3.7175   -2.0053    0.0000 C   0  0
    3.1695   -0.6090    0.0000 N   0  0
    1.6852   -0.3846    0.0000 C   0  0
    1.3514    1.0778    0.0000 C   0  0
    0.0000    1.7286    0.0000 N   0  0
    0.0000    3.2286    0.0000 C   0  0
   -1.3515    1.0777    0.0000 C   0  0
   -1.6852   -0.3847    0.0000 C   0  0
   -0.7500   -1.5574    0.0000 C   0  0
    0.7500   -1.5574    0.0000 N   0  0
    1.2990   -2.9545    0.0000 C   0  0
    0.3640   -4.1274    0.0000 O   0  0
    2.7822   -3.1780    0.0000 C   0  0
    3.3303   -4.5744    0.0000 C   0  0
    4.8135   -4.7979    0.0000 C   0  0
  1  2  2  0
  2  3  1  0
  3  4  1  0
  4  5  2  0
  5  6  1  0
  6  7  1  0
  7  8  1  0
  7  9  1  0
  9 10  1  0
 10 11  1  0
  5 12  1  0
 12 11  1  0
 12 13  1  0
 13 14  2  0
  3 15  2  0
 15 13  1  0
 15 16  1  0
 16 17  2  0
 17  1  1  0
M  END
> <Smiles>
c1cc(N=C(CN(C)CCC2)N2C3=O)c3cc1

> <IC50_uM>
0.912010839

> <pIC50>
6.04

> <Activity>
1

$$$$

  SciTegic10102310092D

 16 17  0  0  0  0            999 V2000
    3.9511   -0.8815    0.0000 C   0  0
    2.5987   -1.5004    0.0000 C   0  0  3  0  0  0
    1.2990   -0.7500    0.0000 N   0  0
    1.2990    0.7500    0.0000 C   0  0
    0.0000    1.5000    0.0000 C   0  0
   -1.2990    0.7500    0.0000 C   0  0
   -2.5981    1.5000    0.0000 O   0  0
   -1.2990   -0.7500    0.0000 N   0  0
    0.0000   -1.5000    0.0000 C   0  0
    0.0000   -3.0000    0.0000 O   0  0
    2.7343   -2.9815    0.0000 C   0  0
    4.2010   -3.2956    0.0000 C   0  0  3  0  0  0
    4.8089   -4.6669    0.0000 O   0  0
    4.9531   -1.9978    0.0000 C   0  0  3  0  0  0
    6.4430   -1.8405    0.0000 C   0  0
    7.0533   -0.4702    0.0000 O   0  0
  1  2  1  0
  2  3  1  4
  3  4  1  0
  4  5  2  0
  5  6  1  0
  6  7  2  0
  6  8  1  0
  8  9  1  0
  9  3  1  0
  9 10  2  0
  2 11  1  0
 11 12  1  0
 12 13  1  4
 12 14  1  0
 14  1  1  0
 14 15  1  4
 15 16  1  0
M  END
> <Smiles>
C1C(N2C=CC(=O)NC2=O)CC(O)C1CO

> <IC50_uM>
0.912010839

> <pIC50>
6.04

> <Activity>
1

$$$$

  SciTegic10102310092D

 13 12  0  0  0  0            999 V2000
    0.0007    0.0004    0.0000 Cl  0  0
    1.3000    0.7500    0.0000 C   0  0
    2.6000    0.0000    0.0000 C   0  0
    3.9000    0.7500    0.0000 N   0  0
    5.2000    0.0000    0.0000 C   0  0
    6.5000    0.7500    0.0000 S   0  0
    7.7999    0.0000    0.0000 C   0  0
    9.0999    0.7500    0.0000 C   0  0
   10.3999    0.0000    0.0000 O   0  0
   11.6999    0.7500    0.0000 C   0  0
   12.9992    0.0004    0.0000 C   0  0
    9.0999    2.2500    0.0000 O   0  0
    5.2000   -1.5000    0.0000 O   0  0
  1  2  1  0
  2  3  1  0
  3  4  1  0
  4  5  1  0
  5  6  1  0
  6  7  1  0
  7  8  1  0
  8  9  1  0
  9 10  1  0
 10 11  1  0
  8 12  2  0
  5 13  2  0
M  END
> <Smiles>
ClCCNC(SCC(OCC)=O)=O

> <IC50_uM>
0.912010839

> <pIC50>
6.04

> <Activity>
1

$$$$

  SciTegic10102310092D

 15 16  0  0  0  0            999 V2000
    4.9531   -1.9978    0.0000 S   0  0
    3.9511   -0.8815    0.0000 C   0  0
    2.5987   -1.5004    0.0000 C   0  0
    1.2990   -0.7500    0.0000 C   0  0
    1.2990    0.7500    0.0000 C   0  0
    2.5981    1.5000    0.0000 O   0  0
    0.0000    1.5000    0.0000 O   0  0
   -1.2990    0.7500    0.0000 C   0  0
   -1.2636    2.2496    0.0000 C   0  0
   -2.5801   -0.0303    0.0000 C   0  0
   -1.2990   -0.7500    0.0000 O   0  0
    0.0000   -1.5000    0.0000 C   0  0
    0.0000   -3.0000    0.0000 O   0  0
    2.7343   -2.9815    0.0000 C   0  0
    4.2010   -3.2956    0.0000 C   0  0
  1  2  1  0
  2  3  2  0
  3  4  1  0
  4  5  1  0
  5  6  2  0
  5  7  1  0
  7  8  1  0
  8  9  1  0
  8 10  1  0
  8 11  1  0
  4 12  1  0
 12 11  1  0
 12 13  2  0
  3 14  1  0
 14 15  2  0
 15  1  1  0
M  END
> <Smiles>
s1cc(C(C(=O)OC(C)(C)O2)C2=O)cc1

> <IC50_uM>
0.912010839

> <pIC50>
6.04

> <Activity>
1

$$$$

  SciTegic10102310092D

 16 16  0  0  0  0            999 V2000
    1.2990   -0.7500    0.0000 N   0  0
    2.6003   -1.4977    0.0000 C   0  0
    3.8990   -0.7455    0.0000 C   0  0  3  0  0  0
    5.2003   -1.4932    0.0000 C   0  0
    6.4990   -0.7409    0.0000 C   0  0
    7.7996   -1.4883    0.0000 O   0  0
    3.8995    0.7554    0.0000 C   0  0
    5.1983    1.5058    0.0000 O   0  0
    1.2990    0.7500    0.0000 C   0  0
    0.0000    1.5000    0.0000 C   0  0
    0.0000    3.0000    0.0000 C   0  0
   -1.2990    0.7500    0.0000 C   0  0
   -2.5981    1.5000    0.0000 O   0  0
   -1.2990   -0.7500    0.0000 N   0  0
    0.0000   -1.5000    0.0000 C   0  0
    0.0000   -3.0000    0.0000 O   0  0
  1  2  1  0
  3  2  1  4
  3  4  1  0
  4  5  1  0
  5  6  1  0
  3  7  1  0
  7  8  1  0
  1  9  1  0
  9 10  2  0
 10 11  1  0
 10 12  1  0
 12 13  2  0
 12 14  1  0
 14 15  1  0
 15  1  1  0
 15 16  2  0
M  END
> <Smiles>
N1(CC(CCO)CO)C=C(C)C(=O)NC1=O

> <IC50_uM>
0.912010839

> <pIC50>
6.04

> <Activity>
1

$$$$

  SciTegic10102310092D

 16 17  0  0  0  0            999 V2000
    1.2990   -0.7500    0.0000 C   0  0
    2.5981   -1.5000    0.0000 O   0  0
    1.2990    0.7500    0.0000 O   0  0
    0.0000    1.5000    0.0000 C   0  0  3  0  0  0
    1.2990    2.2500    0.0000 C   0  0
   -1.2990    0.7500    0.0000 C   0  0
   -2.5981    1.5000    0.0000 C   0  0
   -2.5981    3.0000    0.0000 C   0  0  3  0  0  0
   -1.2991    3.7500    0.0000 C   0  0
    0.0000    3.0000    0.0000 O   0  0
   -3.8971    3.7500    0.0000 C   0  0
   -3.8971    0.7500    0.0000 O   0  0
   -1.2990   -0.7500    0.0000 C   0  0
   -2.5972   -1.5031    0.0000 O   0  0
   -2.5951   -3.0031    0.0000 C   0  0
    0.0000   -1.5000    0.0000 C   0  0
  1  2  2  0
  1  3  1  0
  3  4  1  0
  4  5  1  4
  4  6  1  0
  6  7  2  0
  7  8  1  0
  8  9  1  0
  9 10  1  0
 10  4  1  0
  8 11  1  4
  7 12  1  0
  6 13  1  0
 13 14  1  0
 14 15  1  0
 13 16  2  0
 16  1  1  0
M  END
> <Smiles>
C1(=O)OC2(C)C(=C(C(CO2)C)O)C(OC)=C1

> <IC50_uM>
0.912010839

> <pIC50>
6.04

> <Activity>
1

$$$$

  SciTegic10102310092D

 15 15  0  0  0  0            999 V2000
    0.7500   -1.0323    0.0000 C   0  0
    1.2135    0.3943    0.0000 C   0  0
    0.0000    1.2760    0.0000 N   0  0
    0.0031    2.7742    0.0000 C   0  0
    1.3039    3.5228    0.0000 N   0  0
    1.3070    5.0236    0.0000 C   0  0
    2.6072    5.7717    0.0000 C   0  0
    0.0093    5.7759    0.0000 C   0  0
    1.3094    6.5236    0.0000 C   0  0
   -1.2135    0.3943    0.0000 C   0  0
   -2.6401    0.8578    0.0000 C   0  0
   -0.7500   -1.0323    0.0000 C   0  0
   -1.6281   -2.2462    0.0000 S   0  0
   -1.0157   -3.6164    0.0000 C   0  0
   -1.8949   -4.8318    0.0000 C   0  0
  1  2  1  0
  2  3  1  0
  3  4  1  0
  4  5  2  0
  5  6  1  0
  6  7  1  0
  6  8  1  0
  6  9  1  0
  3 10  1  0
 10 11  1  0
 10 12  2  0
 12  1  1  0
 12 13  1  0
 13 14  1  0
 14 15  1  0
M  END
> <Smiles>
C1CN(\C=N\C(C)(C)C)C(C)=C1SCC

> <IC50_uM>
0.912010839

> <pIC50>
6.04

> <Activity>
1

$$$$

  SciTegic10102310092D

 12 13  0  0  0  0            999 V2000
    3.8805   -1.4410    0.0000 Br  0  0
    2.4133   -1.7530    0.0000 C   0  0
    1.2990   -0.7500    0.0000 N   0  0
    1.2990    0.7500    0.0000 C   0  0
    0.0000    1.5000    0.0000 C   0  0
   -1.2990    0.7500    0.0000 N   0  0
   -2.5981    1.5000    0.0000 C   0  0
   -1.2990   -0.7500    0.0000 C   0  0
   -2.5981   -1.5000    0.0000 O   0  0
    0.0000   -1.5000    0.0000 C   0  0
    0.3114   -2.9665    0.0000 C   0  0
    1.8032   -3.1233    0.0000 C   0  0
  1  2  1  0
  2  3  1  0
  3  4  1  0
  4  5  1  0
  5  6  1  0
  6  7  1  0
  6  8  1  0
  8  9  2  0
  3 10  1  0
 10  8  1  0
 10 11  2  0
 11 12  1  0
 12  2  2  0
M  END
> <Smiles>
Brc1n(CCN(C)C2=O)c2cc1

> <IC50_uM>
0.912010839

> <pIC50>
6.04

> <Activity>
1

$$$$

  SciTegic10102310092D

 17 18  0  0  0  0            999 V2000
    2.5123   -3.4579    0.0000 N   0  0
    1.6307   -2.2444    0.0000 C   0  0
    0.7500   -1.0323    0.0000 C   0  0
    1.2135    0.3943    0.0000 C   0  0
    2.6394    0.8543    0.0000 C   0  0
    3.7533   -0.1515    0.0000 C   0  0
    5.1816    0.3093    0.0000 C   0  0
    6.3743   -0.5791    0.0000 O   0  0
    7.5879    0.3025    0.0000 C   0  0
    7.1244    1.7291    0.0000 C   0  0
    5.6244    1.7292    0.0000 C   0  0
    0.0000    1.2760    0.0000 C   0  0
    1.3101    2.0064    0.0000 C   0  0
   -1.3100    2.0066    0.0000 C   0  0
   -1.2135    0.3943    0.0000 O   0  0
   -0.7500   -1.0323    0.0000 C   0  0
   -1.6317   -2.2458    0.0000 O   0  0
  1  2  3  0
  2  3  1  0
  3  4  2  0
  4  5  1  0
  5  6  2  0
  6  7  1  0
  7  8  1  0
  8  9  1  0
  9 10  2  0
 10 11  1  0
 11  7  2  0
  4 12  1  0
 12 13  1  0
 12 14  1  0
 12 15  1  0
 15 16  1  0
 16  3  1  0
 16 17  2  0
M  END
> <Smiles>
N#CC1=C(\C=C\c2occc2)C(C)(C)OC1=O

> <IC50_uM>
0.912010839

> <pIC50>
6.04

> <Activity>
1

$$$$

  SciTegic10102310092D

 15 15  0  0  0  0            999 V2000
    0.7500   -1.0323    0.0000 O   0  0
    1.2135    0.3943    0.0000 C   0  0
    0.0000    1.2760    0.0000 C   0  0
   -0.0031    2.7742    0.0000 C   0  0
   -1.3040    3.5228    0.0000 C   0  0
   -1.3071    5.0236    0.0000 P   0  0
   -2.6079    5.7721    0.0000 O   0  0
   -2.6110    7.2721    0.0000 C   0  0
   -0.0087    5.7762    0.0000 O   0  0
   -0.0104    7.2762    0.0000 C   0  0
   -1.3095    6.5236    0.0000 O   0  0
   -2.6024    2.7701    0.0000 C   0  0
   -3.9001    2.0178    0.0000 N   0  0
   -1.2135    0.3943    0.0000 C   0  0
   -0.7500   -1.0323    0.0000 C   0  0
  1  2  1  0
  2  3  2  0
  3  4  1  0
  4  5  2  0
  5  6  1  0
  6  7  1  0
  7  8  1  0
  6  9  1  0
  9 10  1  0
  6 11  2  0
  5 12  1  0
 12 13  3  0
  3 14  1  0
 14 15  2  0
 15  1  1  0
M  END
> <Smiles>
o1cc(\C=C(\P(OC)(OC)=O)/C#N)cc1

> <IC50_uM>
0.912010839

> <pIC50>
6.04

> <Activity>
1

$$$$

  SciTegic10102310092D

 15 15  0  0  0  0            999 V2000
    0.7500   -1.0323    0.0000 O   0  0
    1.2135    0.3943    0.0000 C   0  0
    2.6375    0.8603    0.0000 C   0  0
    2.9474    2.3287    0.0000 C   0  0
    4.3738    2.7955    0.0000 P   0  0
    4.6837    4.2640    0.0000 O   0  0
    6.1093    4.7305    0.0000 C   0  0
    5.4908    1.7933    0.0000 O   0  0
    6.9169    2.2584    0.0000 C   0  0
    5.7996    3.2613    0.0000 O   0  0
    1.8303    3.3310    0.0000 C   0  0
    0.7138    4.3327    0.0000 N   0  0
    0.0000    1.2760    0.0000 C   0  0
   -1.2135    0.3943    0.0000 C   0  0
   -0.7500   -1.0323    0.0000 C   0  0
  1  2  1  0
  2  3  1  0
  3  4  2  0
  4  5  1  0
  5  6  1  0
  6  7  1  0
  5  8  1  0
  8  9  1  0
  5 10  2  0
  4 11  1  0
 11 12  3  0
  2 13  2  0
 13 14  1  0
 14 15  2  0
 15  1  1  0
M  END
> <Smiles>
o1c(\C=C(\P(OC)(OC)=O)/C#N)ccc1

> <IC50_uM>
0.912010839

> <pIC50>
6.04

> <Activity>
1

$$$$

  SciTegic10102310092D

 16 17  0  0  0  0            999 V2000
   -2.4451   -0.7641    0.0000 C   0  0  3  0  0  0
   -3.2310    0.3930    0.0000 C   0  0
   -4.7041    0.7605    0.0000 O   0  0
   -5.7257   -0.3379    0.0000 C   0  0
   -2.2191    1.5253    0.0000 O   0  0
   -2.6591    2.9593    0.0000 C   0  0
   -3.2310   -1.9430    0.0000 C   0  0  3  0  0  0
   -4.5628   -2.3141    0.0000 C   0  0  3  0  0  0
   -5.7425   -3.2248    0.0000 C   0  0  3  0  0  0
   -5.5432   -4.7124    0.0000 C   0  0
   -6.7305   -5.6290    0.0000 O   0  0
   -7.1298   -2.6545    0.0000 C   0  0
   -6.9303   -4.1409    0.0000 N   0  0
   -3.8642   -1.1134    0.0000 C   0  0
   -1.8993   -2.3141    0.0000 C   0  0
   -1.2226   -1.1134    0.0000 C   0  0
  1  2  1  0
  2  3  1  0
  3  4  1  0
  2  5  1  0
  5  6  1  0
  2  7  1  0
  7  8  1  0
  8  9  1  0
  9 10  1  0
 10 11  1  0
  9 12  1  4
  9 13  1  0
  8 14  1  4
  1 14  1  4
  7 15  1  4
 15 16  2  0
 16  1  1  0
M  END
> <Smiles>
C12C(OC)(OC)C(C(C(CO)(C)N)C1)C=C2

> <IC50_uM>
0.912010839

> <pIC50>
6.04

> <Activity>
1

$$$$

  SciTegic10102310092D

 32 34  0  0  0  0            999 V2000
    2.5981   -1.5000    0.0000 C   0  0
    1.2990   -0.7500    0.0000 C   0  0
    1.2990    0.7500    0.0000 C   0  0
    0.0000    1.5000    0.0000 C   0  0
    0.0000    3.0008    0.0000 C   0  0
    0.0000    4.5008    0.0000 N   0  0
   -1.2990    0.7500    0.0000 C   0  0
   -1.2990   -0.7500    0.0000 C   0  0
   -2.5981   -1.5000    0.0000 C   0  0
    0.0000   -1.5000    0.0000 C   0  0
    0.0031   -3.0008    0.0000 O   0  0
    1.3039   -3.7494    0.0000 C   0  0
    1.3092   -5.2494    0.0000 C   0  0
    2.6108   -5.9949    0.0000 C   0  0
    3.9073   -5.2404    0.0000 N   0  0
    3.9021   -3.7404    0.0000 C   0  0
    5.1992   -2.9855    0.0000 S   0  0
    5.1936   -1.4855    0.0000 O   0  0
    6.4953   -2.2304    0.0000 O   0  0
    6.5020   -3.7306    0.0000 C   0  0
    7.7992   -2.9757    0.0000 C   0  0
    7.7935   -1.4757    0.0000 O   0  0
    9.1020   -3.7208    0.0000 N   0  0
   10.3991   -2.9659    0.0000 C   0  0
   11.7024   -3.7087    0.0000 C   0  0
   12.9972   -2.9515    0.0000 C   0  0
   14.3004   -3.6944    0.0000 Cl  0  0
   12.9890   -1.4516    0.0000 C   0  0
   11.6859   -0.7087    0.0000 C   0  0
   11.6776    0.7913    0.0000 Cl  0  0
   10.3910   -1.4658    0.0000 C   0  0
    2.6004   -2.9949    0.0000 N   0  0
  1  2  1  0
  2  3  2  0
  3  4  1  0
  4  5  1  0
  5  6  3  0
  4  7  2  0
  7  8  1  0
  8  9  1  0
  8 10  2  0
 10  2  1  0
 10 11  1  0
 11 12  1  0
 12 13  2  0
 13 14  1  0
 14 15  2  0
 15 16  1  0
 16 17  1  0
 17 18  2  0
 17 19  2  0
 17 20  1  0
 20 21  1  0
 21 22  2  0
 21 23  1  0
 23 24  1  0
 24 25  2  0
 25 26  1  0
 26 27  1  0
 26 28  2  0
 28 29  1  0
 29 30  1  0
 29 31  2  0
 31 24  1  0
 16 32  2  0
 32 12  1  0
M  END
> <Smiles>
Cc1cc(C#N)cc(C)c1Oc1ccnc(S(=O)(=O)CC(=O)Nc2cc(Cl)cc(Cl)c2)n1

> <IC50_uM>
0.918

> <pIC50>
6.037157319

> <Activity>
1

$$$$

  SciTegic10102310092D

 36 40  0  0  0  0            999 V2000
    2.5923    1.5001    0.0000 C   0  0
    3.8939    0.7546    0.0000 C   0  0
    5.1903    1.5091    0.0000 C   0  0
    6.4920    0.7636    0.0000 C   0  0
    7.7891    1.5185    0.0000 C   0  0
    9.0856    2.2729    0.0000 N   0  0
    6.4972   -0.7364    0.0000 C   0  0
    5.2007   -1.4909    0.0000 C   0  0
    5.2059   -2.9909    0.0000 C   0  0
    3.8990   -0.7455    0.0000 C   0  0
    2.6003   -1.4977    0.0000 O   0  0
    1.2990   -0.7500    0.0000 C   0  0
    1.2990    0.7500    0.0000 N   0  0
    0.0000    1.5000    0.0000 C   0  0
   -0.0031    3.0008    0.0000 N   0  0
   -1.3039    3.7494    0.0000 C   0  0  3  0  0  0
   -1.3092    5.2494    0.0000 C   0  0
   -2.6108    5.9949    0.0000 C   0  0
   -3.9073    5.2404    0.0000 C   0  0  3  0  0  0
   -5.2112    5.9836    0.0000 N   0  0
   -6.5072    5.2269    0.0000 C   0  0
   -7.8111    5.9701    0.0000 C   0  0
   -9.1076    5.2156    0.0000 C   0  0
  -10.4092    5.9611    0.0000 C   0  0
  -10.4145    7.4611    0.0000 C   0  0
  -11.7161    8.2066    0.0000 F   0  0
   -9.1180    8.2156    0.0000 C   0  0
   -7.8164    7.4702    0.0000 C   0  0
   -3.9021    3.7404    0.0000 C   0  0
   -2.6005    2.9949    0.0000 C   0  0
   -1.2990    0.7500    0.0000 N   0  0
   -1.2990   -0.7500    0.0000 C   0  0
   -2.4133   -1.7530    0.0000 C   0  0
   -1.8032   -3.1233    0.0000 C   0  0
   -0.3114   -2.9665    0.0000 S   0  0
    0.0000   -1.5000    0.0000 C   0  0
  1  2  1  0
  2  3  2  0
  3  4  1  0
  4  5  1  0
  5  6  3  0
  4  7  2  0
  7  8  1  0
  8  9  1  0
  8 10  2  0
 10  2  1  0
 10 11  1  0
 11 12  1  0
 12 13  2  0
 13 14  1  0
 14 15  1  0
 16 15  1  4
 16 17  1  0
 17 18  1  0
 18 19  1  0
 19 20  1  4
 20 21  1  0
 21 22  1  0
 22 23  2  0
 23 24  1  0
 24 25  2  0
 25 26  1  0
 25 27  1  0
 27 28  2  0
 28 22  1  0
 19 29  1  0
 29 30  1  0
 30 16  1  0
 14 31  2  0
 31 32  1  0
 32 33  1  0
 33 34  2  0
 34 35  1  0
 35 36  1  0
 36 12  1  0
 36 32  2  0
M  END
> <Smiles>
Cc1cc(C#N)cc(C)c1Oc1nc(NC2CCC(NCc3ccc(F)cc3)CC2)nc2ccsc12

> <IC50_uM>
0.919

> <pIC50>
6.036684489

> <Activity>
1

$$$$

  SciTegic10102310092D

 23 25  0  0  0  0            999 V2000
    2.5981   -1.5000    0.0000 C   0  0
    1.2990   -0.7500    0.0000 C   0  0
    1.2990    0.7500    0.0000 C   0  0
    0.0000    1.5000    0.0000 C   0  0
   -0.0031    3.0008    0.0000 C   0  0
   -1.3039    3.7494    0.0000 C   0  0
   -1.3092    5.2494    0.0000 C   0  0
   -2.6108    5.9949    0.0000 C   0  0
   -3.9073    5.2404    0.0000 C   0  0
   -5.2089    5.9859    0.0000 Cl  0  0
   -3.9021    3.7404    0.0000 C   0  0
   -5.1977    2.9828    0.0000 O   0  0
   -5.1903    1.4820    0.0000 C   0  0
   -6.4841    0.7230    0.0000 C   0  0
   -6.4738   -0.7770    0.0000 C   0  0
   -5.1696   -1.5180    0.0000 C   0  0
   -3.8757   -0.7590    0.0000 C   0  0
   -3.8861    0.7409    0.0000 C   0  0
   -2.6005    2.9949    0.0000 C   0  0
   -1.2990    0.7500    0.0000 N   0  0
   -1.2990   -0.7500    0.0000 N   0  0
    0.0000   -1.5000    0.0000 C   0  0
    0.0000   -3.0000    0.0000 O   0  0
  1  2  1  0
  2  3  2  0
  3  4  1  0
  4  5  1  0
  5  6  1  0
  6  7  2  0
  7  8  1  0
  8  9  2  0
  9 10  1  0
  9 11  1  0
 11 12  1  0
 12 13  1  0
 13 14  2  0
 14 15  1  0
 15 16  2  0
 16 17  1  0
 17 18  2  0
 18 13  1  0
 11 19  2  0
 19  6  1  0
  4 20  2  0
 20 21  1  0
 21 22  1  0
 22  2  1  0
 22 23  2  0
M  END
> <Smiles>
Cc1cc(Cc2ccc(Cl)c(Oc3ccccc3)c2)n[nH]c1=O

> <IC50_uM>
0.92

> <pIC50>
6.036212173

> <Activity>
1

$$$$

  SciTegic10102310092D

 39 41  0  0  1  0            999 V2000
    4.8141   -1.7844    0.0000 C   0  0
    3.3403   -2.0633    0.0000 C   0  0
    2.3618   -0.9264    0.0000 C   0  0
    0.8871   -1.2105    0.0000 N   0  0
    0.0000    0.0000    0.0000 C   0  0  2  0  0  0
   -1.4986    0.0000    0.0000 O   0  0
   -1.9682    1.4103    0.0000 C   0  0  2  0  0  0
   -3.3980    1.8586    0.0000 C   0  0
   -4.5036    0.8435    0.0000 O   0  0
   -5.9356    1.2925    0.0000 Si  0  0
   -6.2622    2.7565    0.0000 C   0  0
   -4.8312    2.3075    0.0000 C   0  0
   -7.0412    0.2774    0.0000 C   0  0
   -8.4725    0.7262    0.0000 C   0  0
   -6.7146   -1.1866    0.0000 C   0  0
   -8.1456   -0.7376    0.0000 C   0  0
   -0.7739    2.2951    0.0000 C   0  0  2  0  0  0
   -1.9962    3.1701    0.0000 O   0  0
   -1.5432    4.6046    0.0000 S   0  0
   -0.9247    5.9712    0.0000 O   0  0
   -3.0308    4.4124    0.0000 O   0  0
   -0.0400    4.6189    0.0000 C   0  0
    0.8301    5.8408    0.0000 Br  0  0
    0.4394    3.1898    0.0000 C   0  0
    1.8698    2.7381    0.0000 N   0  0
    0.4530    1.4345    0.0000 C   0  0  1  0  0  0
    1.8706    1.9191    0.0000 O   0  0
    3.0017    0.9327    0.0000 Si  0  0
    2.7127   -0.5392    0.0000 C   0  0
    2.0556    0.6088    0.0000 C   0  0
    4.4218    1.4182    0.0000 C   0  0
    5.5524    0.4323    0.0000 C   0  0
    4.7108    2.8901    0.0000 C   0  0
    5.8410    1.9041    0.0000 C   0  0
    0.3926   -2.6211    0.0000 C   0  0
   -1.0813   -2.8996    0.0000 O   0  0
    1.3710   -3.7581    0.0000 N   0  0
    2.8449   -3.4792    0.0000 C   0  0
    3.8233   -4.6161    0.0000 O   0  0
  1  2  1  0
  2  3  2  0
  3  4  1  0
  5  4  1  6
  5  6  1  0
  6  7  1  0
  7  8  1  6
  8  9  1  0
  9 10  1  0
 10 11  1  0
 10 12  1  0
 10 13  1  0
 13 14  1  0
 13 15  1  0
 13 16  1  0
  7 17  1  0
 17 18  1  1
 18 19  1  0
 19 20  2  0
 19 21  2  0
 19 22  1  0
 22 23  1  0
 22 24  2  0
 24 17  1  0
 24 25  1  0
 17 26  1  0
 26  5  1  0
 26 27  1  1
 27 28  1  0
 28 29  1  0
 28 30  1  0
 28 31  1  0
 31 32  1  0
 31 33  1  0
 31 34  1  0
  4 35  1  0
 35 36  2  0
 35 37  1  0
 37 38  1  0
 38  2  1  0
 38 39  2  0
M  END
> <Smiles>
Cc1cn([C@@H]2O[C@H](CO[Si](C)(C)C(C)(C)C)[C@@]3(OS(=O)(=O)C(Br)=C3N)[C@H]2O[Si](C)(C)C(C)(C)C)c(=O)[nH]c1=O

> <IC50_uM>
0.93

> <pIC50>
6.031517051

> <Activity>
1

$$$$

  SciTegic10102310092D

 17 18  0  0  0  0            999 V2000
    2.6003   -1.4977    0.0000 N   0  3
    1.2990   -0.7500    0.0000 C   0  0
    1.2990    0.7500    0.0000 C   0  0
    0.0000    1.5000    0.0000 C   0  0
   -1.2990    0.7500    0.0000 C   0  0
   -1.2990   -0.7500    0.0000 C   0  0
   -2.5981   -1.5000    0.0000 C   0  0
   -2.5981   -3.0000    0.0000 C   0  0
   -3.8963   -3.7531    0.0000 C   0  0
   -5.1966   -3.0054    0.0000 O   0  0
   -3.8941   -5.2531    0.0000 O   0  0
   -1.2990   -3.7500    0.0000 C   0  0
    0.0000   -3.0000    0.0000 N   0  0
   -3.8971   -0.7500    0.0000 O   0  0
    0.0000   -1.5000    0.0000 C   0  0
    2.6030   -2.9977    0.0000 O   0  5
    3.8983   -0.7459    0.0000 O   0  0
  1  2  1  0
  2  3  2  0
  3  4  1  0
  4  5  2  0
  5  6  1  0
  6  7  2  0
  7  8  1  0
  8  9  1  0
  9 10  1  0
  9 11  2  0
  8 12  2  0
 12 13  1  0
  7 14  1  0
  6 15  1  0
 15  2  1  0
 15 13  2  0
  1 16  1  0
  1 17  2  0
M  CHG  2   1   1  16  -1
M  END
> <Smiles>
[N+](c1cccc(c(c(C(O)=O)cn2)O)c12)([O-])=O

> <IC50_uM>
0.933254301

> <pIC50>
6.03

> <Activity>
1

$$$$

  SciTegic10102310092D

 17 18  0  0  0  0            999 V2000
    2.5981   -1.5000    0.0000 O   0  0
    1.2990   -0.7500    0.0000 C   0  0
    1.2990    0.7500    0.0000 C   0  0
    0.0000    1.5000    0.0000 C   0  0
   -1.2990    0.7500    0.0000 C   0  0
   -2.5981    1.5000    0.0000 C   0  0
   -1.2990   -0.7500    0.0000 N   0  0
    0.0000   -1.5000    0.0000 N   0  0
    0.0000   -3.0008    0.0000 C   0  0
   -1.2978   -3.7529    0.0000 C   0  0
   -1.2955   -5.2529    0.0000 C   0  0
    0.0048   -6.0009    0.0000 C   0  0
    0.0102   -7.5017    0.0000 O   0  0
    1.3115   -8.2478    0.0000 C   0  0
    1.3026   -5.2488    0.0000 C   0  0
    1.3002   -3.7488    0.0000 C   0  0
    2.5981    1.5000    0.0000 N   0  0
  1  2  2  0
  2  3  1  0
  3  4  2  0
  4  5  1  0
  5  6  1  0
  5  7  2  0
  7  8  1  0
  8  2  1  0
  8  9  1  0
  9 10  2  0
 10 11  1  0
 11 12  2  0
 12 13  1  0
 13 14  1  0
 12 15  1  0
 15 16  2  0
 16  9  1  0
  3 17  1  0
M  END
> <Smiles>
O=C1C(=CC(C)=NN1c2ccc(OC)cc2)N

> <IC50_uM>
0.933254301

> <pIC50>
6.03

> <Activity>
1

$$$$

  SciTegic10102310092D

 17 18  0  0  0  0            999 V2000
    2.5959   -3.0016    0.0000 C   0  0
    2.5991   -1.5008    0.0000 C   0  0
    1.2990   -0.7500    0.0000 C   0  0
    1.2990    0.7500    0.0000 C   0  0
    0.0000    1.5000    0.0000 C   0  0
   -1.2990    0.7500    0.0000 C   0  0
   -1.2990   -0.7500    0.0000 C   0  0
   -2.5972   -1.5031    0.0000 O   0  0
   -2.5951   -3.0031    0.0000 C   0  0
    0.0000   -1.5000    0.0000 C   0  0
    2.5647   -0.0215    0.0000 C   0  0
    3.8646    0.7271    0.0000 C   0  0
    5.1628   -0.0243    0.0000 N   0  0
    6.4627    0.7242    0.0000 C   0  0
    5.1612   -1.5243    0.0000 C   0  0
    3.8613   -2.2729    0.0000 C   0  0
    2.5928   -4.5016    0.0000 N   0  0
  1  2  1  0
  2  3  1  0
  3  4  2  0
  4  5  1  0
  5  6  2  0
  6  7  1  0
  7  8  1  0
  8  9  1  0
  7 10  2  0
 10  3  1  0
  2 11  1  0
 11 12  1  0
 12 13  1  0
 13 14  1  0
 13 15  1  0
 15 16  1  0
 16  2  1  0
  1 17  3  0
M  END
> <Smiles>
C(C1(c2cccc(OC)c2)CCN(C)CC1)#N

> <IC50_uM>
0.933254301

> <pIC50>
6.03

> <Activity>
1

$$$$

  SciTegic10102310092D

 15 14  0  0  0  0            999 V2000
   11.6999    0.7500    0.0000 C   0  0
   10.3999    0.0000    0.0000 C   0  0
    9.0999    0.7500    0.0000 C   0  0
    7.7999    0.0000    0.0000 S   0  0
    6.5000    0.7500    0.0000 C   0  0
    5.2000    0.0000    0.0000 C   0  0
    3.9000    0.7500    0.0000 C   0  0
    2.6000    0.0000    0.0000 C   0  0
    1.3000    0.7500    0.0000 C   0  0
    1.3000    2.2500    0.0000 O   0  0
    0.0007    0.0004    0.0000 O   0  0
   12.9999    0.0000    0.0000 C   0  0
   14.2999    0.7500    0.0000 C   0  0
   14.2999    2.2500    0.0000 O   0  0
   15.5992    0.0004    0.0000 O   0  0
  1  2  1  0
  2  3  1  0
  3  4  1  0
  4  5  1  0
  5  6  1  0
  6  7  1  0
  7  8  1  0
  8  9  1  0
  9 10  1  0
  9 11  2  0
  1 12  1  0
 12 13  1  0
 13 14  1  0
 13 15  2  0
M  END
> <Smiles>
C(CCSCCCCC(O)=O)CC(O)=O

> <IC50_uM>
0.933254301

> <pIC50>
6.03

> <Activity>
1

$$$$

  SciTegic10102310092D

 12 14  0  0  0  0            999 V2000
    2.5129   -2.3640    0.0000 O   0  0
    2.0715   -0.9304    0.0000 C   0  0
    3.0546    0.3862    0.0000 O   0  0
    2.0715    1.7204    0.0000 C   0  0
    2.5322    3.1479    0.0000 O   0  0
    0.5442    1.2289    0.0000 C   0  0
   -0.9831    1.7204    0.0000 C   0  0  3  0  0  0
   -1.9662    0.3862    0.0000 O   0  0
   -0.9831   -0.9304    0.0000 C   0  0  3  0  0  0
   -0.1756    1.0358    0.0000 C   0  0
   -0.1756    0.0000    0.0000 C   0  0
    0.5442   -0.4038    0.0000 C   0  0
  1  2  2  0
  2  3  1  0
  3  4  1  0
  4  5  2  0
  4  6  1  0
  6  7  1  0
  7  8  1  4
  9  8  1  4
  7 10  1  0
 10 11  2  0
 11  9  1  0
  6 12  2  0
 12  2  1  0
 12  9  1  0
M  END
> <Smiles>
O=C1OC(=O)C(C(OC23)C=C2)=C13

> <IC50_uM>
0.933254301

> <pIC50>
6.03

> <Activity>
1

$$$$

  SciTegic10102310092D

 11 12  0  0  0  0            999 V2000
    2.5981   -1.5000    0.0000 O   0  0
    1.2990   -0.7500    0.0000 C   0  0
    1.2990    0.7500    0.0000 O   0  0
    0.0000    1.5000    0.0000 C   0  0
   -1.2990    0.7500    0.0000 S   0  0
   -1.2990   -0.7500    0.0000 C   0  0
   -2.5981   -1.5000    0.0000 C   0  0
   -2.5981   -3.0000    0.0000 C   0  0
   -1.2990   -3.7500    0.0000 C   0  0
    0.0000   -3.0000    0.0000 C   0  0
    0.0000   -1.5000    0.0000 C   0  0
  1  2  2  0
  2  3  1  0
  3  4  1  0
  4  5  1  0
  5  6  1  0
  6  7  2  0
  7  8  1  0
  8  9  2  0
  9 10  1  0
  6 11  1  0
 11  2  1  0
 11 10  2  0
M  END
> <Smiles>
O=C1OCSc(cccc2)c12

> <IC50_uM>
0.933254301

> <pIC50>
6.03

> <Activity>
1

$$$$

  SciTegic10102310092D

 10 12  0  0  0  0            999 V2000
   -0.8987    0.0000    0.0000 C   0  0  3  0  0  0
   -2.0541   -1.3755    0.0000 O   0  0
   -0.6052   -0.9721    0.0000 P   0  0  3  0  0  0
   -0.6052    0.5686    0.0000 O   0  0
    0.4035    1.7790    0.0000 C   0  0  3  0  0  0
    1.7790    1.2105    0.0000 C   0  0
    1.7607   -0.2751    0.0000 C   0  0  3  0  0  0
    0.3852   -0.6052    0.0000 C   0  0
   -0.8987    1.3205    0.0000 C   0  0
    0.7703   -1.5223    0.0000 O   0  0
  1  2  1  4
  3  2  1  4
  3  4  1  0
  5  4  1  4
  5  6  1  0
  7  6  1  4
  7  8  1  0
  8  1  1  0
  5  9  1  0
  9  1  1  0
  3 10  1  0
 10  7  1  0
M  END
> <Smiles>
C12OP(OC(CC3C1)C2)O3

> <IC50_uM>
0.933254301

> <pIC50>
6.03

> <Activity>
1

$$$$

  SciTegic10102310092D

 15 16  0  0  0  0            999 V2000
   -0.6923   -4.0811    0.0000 C   0  0
    0.3114   -2.9665    0.0000 N   0  0
    1.8032   -3.1233    0.0000 C   0  0
    2.4133   -1.7530    0.0000 N   0  0
    1.2990   -0.7500    0.0000 C   0  0  3  0  0  0
    1.2990    0.7500    0.0000 C   0  0  3  0  0  0
    0.0000    1.5000    0.0000 C   0  0  3  0  0  0
    0.0000    3.0000    0.0000 O   0  0
   -1.2990    0.7500    0.0000 C   0  0  3  0  0  0
   -2.6003    1.4977    0.0000 C   0  0
   -3.8983    0.7459    0.0000 O   0  0
   -1.2990   -0.7500    0.0000 O   0  0
    2.5981    1.5000    0.0000 O   0  0
    0.0000   -1.5000    0.0000 C   0  0  3  0  0  0
    2.5532   -4.4223    0.0000 S   0  0
  1  2  1  0
  2  3  1  0
  3  4  1  0
  5  4  1  4
  5  6  1  0
  6  7  1  0
  7  8  1  4
  7  9  1  0
  9 10  1  4
 10 11  1  0
  9 12  1  0
  6 13  1  4
  5 14  1  0
 14  2  1  0
 14 12  1  4
  3 15  2  0
M  END
> <Smiles>
CN1C(NC(C(C(O)C(CO)O2)O)C12)=S

> <IC50_uM>
0.933254301

> <pIC50>
6.03

> <Activity>
1

$$$$

  SciTegic10102310092D

 15 15  0  0  0  0            999 V2000
    2.5973   -1.5031    0.0000 N   0  0
    1.2990   -0.7500    0.0000 C   0  0
    1.2990    0.7500    0.0000 C   0  0
    0.0000    1.5000    0.0000 C   0  0
   -1.2990    0.7500    0.0000 C   0  0
   -1.2990   -0.7500    0.0000 C   0  0
    0.0000   -1.5000    0.0000 C   0  0
    2.5951   -3.0039    0.0000 C   0  0
    1.2948   -3.7516    0.0000 O   0  0
    3.8933   -3.7570    0.0000 N   0  0
    5.1959   -3.0115    0.0000 N   0  0
    6.4926   -3.7656    0.0000 O   0  0
    3.8912   -5.2578    0.0000 C   0  0
    5.1894   -6.0109    0.0000 C   0  0
    5.1873   -7.5109    0.0000 Cl  0  0
  1  2  1  0
  2  3  1  0
  3  4  1  0
  4  5  1  0
  5  6  1  0
  6  7  1  0
  7  2  1  0
  1  8  1  0
  8  9  2  0
  8 10  1  0
 10 11  1  0
 11 12  2  0
 10 13  1  0
 13 14  1  0
 14 15  1  0
M  END
> <Smiles>
N(C1CCCCC1)C(=O)N(N=O)CCCl

> <IC50_uM>
0.933254301

> <pIC50>
6.03

> <Activity>
1

$$$$

  SciTegic10102310092D

 15 16  0  0  0  0            999 V2000
   -2.9088   -1.3949    0.0000 C   0  0
   -3.8909   -1.2065    0.0000 C   0  0
   -5.3236   -0.7540    0.0000 S   0  0
   -5.3236    0.7390    0.0000 C   0  0
   -6.5377    1.6199    0.0000 N   0  0
   -3.8909    1.2065    0.0000 N   0  0
   -3.0162    0.0000    0.0000 B   0  5
   -2.2621    1.2970    0.0000 O   0  0
   -0.7540    1.2970    0.0000 C   0  0
    0.0000    0.0000    0.0000 C   0  0
   -0.7540   -1.2970    0.0000 C   0  0
   -0.0060   -2.5971    0.0000 O   0  0
   -2.2621   -1.2970    0.0000 O   0  0
   -0.0060    2.5971    0.0000 O   0  0
   -4.9062   -2.3106    0.0000 C   0  0
  1  2  1  0
  2  3  1  0
  3  4  1  0
  4  5  1  0
  4  6  2  0
  6  7  1  0
  7  2  1  0
  7  8  1  0
  8  9  1  0
  9 10  1  0
 10 11  1  0
 11 12  2  0
 11 13  1  0
 13  7  1  0
  9 14  2  0
  2 15  1  0
M  CHG  1   7  -1
M  END
> <Smiles>
CC1(SC(N)=N[B-]12OC(CC(=O)O2)=O)C

> <IC50_uM>
0.933254301

> <pIC50>
6.03

> <Activity>
1

$$$$

  SciTegic10102310092D

 18 20  0  0  0  0            999 V2000
    2.5973   -1.5031    0.0000 N   0  0
    1.2990   -0.7500    0.0000 C   0  0
    1.2990    0.7500    0.0000 C   0  0
    0.0000    1.5000    0.0000 N   0  0
   -1.2990    0.7500    0.0000 C   0  0
   -2.5981    1.5000    0.0000 C   0  0
   -3.8971    0.7500    0.0000 C   0  0
   -3.8971   -0.7500    0.0000 C   0  0
   -2.5981   -1.5000    0.0000 C   0  0
   -1.2990   -0.7500    0.0000 C   0  0
    0.0000   -1.5000    0.0000 C   0  0
    2.5951   -3.0039    0.0000 C   0  0
    3.8933   -3.7570    0.0000 C   0  0
    3.8934   -5.2570    0.0000 C   0  0
    5.1924   -6.0070    0.0000 N   0  0
    6.4915   -5.2571    0.0000 C   0  0
    6.4915   -3.7571    0.0000 C   0  0
    5.1925   -3.0070    0.0000 C   0  0
  1  2  1  0
  2  3  2  0
  3  4  1  0
  4  5  2  0
  5  6  1  0
  6  7  2  0
  7  8  1  0
  8  9  2  0
  5 10  1  0
 10  9  1  0
 10 11  2  0
 11  2  1  0
  1 12  2  0
 12 13  1  0
 13 14  2  0
 14 15  1  0
 15 16  2  0
 16 17  1  0
 17 18  2  0
 18 13  1  0
M  END
> <Smiles>
N(/c1cnc(cccc2)c2c1)=C\c3cnccc3

> <IC50_uM>
0.933254301

> <pIC50>
6.03

> <Activity>
1

$$$$

  SciTegic10102310092D

 17 19  0  0  0  0            999 V2000
    3.6658   -3.6705    0.0000 C   0  0
    3.6642   -2.1705    0.0000 C   0  0  3  0  0  0
    2.5987   -1.5004    0.0000 C   0  0  3  0  0  0
    3.7185   -0.6715    0.0000 C   0  0  3  0  0  0
    4.4209    0.6425    0.0000 C   0  0
    3.6280    1.9158    0.0000 O   0  0
    5.9201    0.6931    0.0000 O   0  0
    2.4691   -2.9230    0.0000 C   0  0  3  0  0  0
    1.6922   -4.1951    0.0000 C   0  0
    0.1927   -4.1578    0.0000 O   0  0
    2.4092   -5.5127    0.0000 O   0  0
    1.2990   -0.7500    0.0000 C   0  0
    1.2990    0.7500    0.0000 C   0  0
    0.0000    1.5000    0.0000 C   0  0
   -1.2990    0.7500    0.0000 C   0  0
   -1.2990   -0.7500    0.0000 C   0  0
    0.0000   -1.5000    0.0000 C   0  0
  2  1  1  4
  2  3  1  0
  3  4  1  0
  4  2  1  0
  4  5  1  4
  5  6  1  0
  5  7  2  0
  3  8  1  0
  8  2  1  0
  8  9  1  4
  9 10  1  0
  9 11  2  0
  3 12  1  4
 12 13  2  0
 13 14  1  0
 14 15  2  0
 15 16  1  0
 16 17  2  0
 17 12  1  0
M  END
> <Smiles>
CC12C(C1C(O)=O)(C2C(O)=O)c3ccccc3

> <IC50_uM>
0.933254301

> <pIC50>
6.03

> <Activity>
1

$$$$

  SciTegic10102310092D

 14 14  0  0  0  0            999 V2000
    2.6003   -1.4977    0.0000 C   0  0
    1.2990   -0.7500    0.0000 C   0  0
    1.2990    0.7500    0.0000 C   0  0
    0.0000    1.5000    0.0000 C   0  0
   -1.2990    0.7500    0.0000 C   0  0
   -1.2990   -0.7500    0.0000 C   0  0
    0.0000   -1.5000    0.0000 C   0  0
   -0.0031   -3.0008    0.0000 S   0  0
   -1.3039   -3.7494    0.0000 S   0  0
   -1.3070   -5.2494    0.0000 O   0  0
   -2.6016   -2.9971    0.0000 O   0  0
   -2.6044   -4.4969    0.0000 C   0  0
    2.6030   -2.9977    0.0000 O   0  0
    3.8983   -0.7459    0.0000 O   0  0
  1  2  1  0
  2  3  2  0
  3  4  1  0
  4  5  2  0
  5  6  1  0
  6  7  2  0
  7  2  1  0
  7  8  1  0
  8  9  1  0
  9 10  2  0
  9 11  2  0
  9 12  1  0
  1 13  1  0
  1 14  2  0
M  END
> <Smiles>
C(c1ccccc1SS(=O)(=O)C)(O)=O

> <IC50_uM>
0.933254301

> <pIC50>
6.03

> <Activity>
1

$$$$

  SciTegic10102310092D

 15 17  0  0  0  0            999 V2000
   -2.1391   -2.1827    0.0000 O   0  0
   -0.6799   -2.5305    0.0000 S   0  0
    0.8198   -2.5040    0.0000 C   0  0
    0.7500   -1.0323    0.0000 C   0  0  3  0  0  0
    2.2374   -1.2318    0.0000 N   0  0
    2.8080   -2.6191    0.0000 C   0  0
    4.2947   -2.8185    0.0000 C   0  0
    5.2108   -1.6308    0.0000 O   0  0
    4.6402   -0.2435    0.0000 C   0  0
    3.1535   -0.0441    0.0000 C   0  0
    1.2135    0.3943    0.0000 C   0  0
    0.0000    1.2760    0.0000 C   0  0
   -1.2135    0.3943    0.0000 C   0  0
   -0.7500   -1.0323    0.0000 C   0  0  3  0  0  0
   -0.2392   -3.9643    0.0000 O   0  0
  1  2  2  0
  2  3  1  0
  3  4  1  0
  4  5  1  4
  5  6  1  0
  6  7  1  0
  7  8  1  0
  8  9  1  0
  9 10  1  0
 10  5  1  0
  4 11  1  0
 11 12  1  0
 12 13  1  0
  4 14  1  0
 14  2  1  0
 14 13  1  4
  2 15  2  0
M  END
> <Smiles>
O=S1(CC(N2CCOCC2)(CCC3)C13)=O

> <IC50_uM>
0.933254301

> <pIC50>
6.03

> <Activity>
1

$$$$

  SciTegic10102310092D

 16 17  0  0  0  0            999 V2000
    2.5959   -3.0008    0.0000 C   0  0
    2.5991   -1.5008    0.0000 P   0  0  0  0  0  4
    1.2990   -0.7500    0.0000 C   0  0
    1.2990    0.7500    0.0000 C   0  0
    0.0000    1.5000    0.0000 C   0  0
   -1.2990    0.7500    0.0000 C   0  0
   -1.2990   -0.7500    0.0000 C   0  0
    0.0000   -1.5000    0.0000 C   0  0
    2.5647   -0.0215    0.0000 C   0  0
    3.8646    0.7271    0.0000 C   0  0
    5.1628   -0.0243    0.0000 C   0  0
    6.4627    0.7242    0.0000 N   0  0
    5.1612   -1.5243    0.0000 C   0  0
    6.4601   -2.2762    0.0000 C   0  0
    7.7583   -3.0276    0.0000 N   0  0
    3.8613   -2.2729    0.0000 C   0  0
  1  2  1  0
  2  3  1  0
  3  4  2  0
  4  5  1  0
  5  6  2  0
  6  7  1  0
  7  8  2  0
  8  3  1  0
  2  9  1  0
  9 10  1  0
 10 11  1  0
 11 12  1  0
 11 13  2  0
 13 14  1  0
 14 15  3  0
 13 16  1  0
 16  2  1  0
M  END
> <Smiles>
C[P]1(c2ccccc2)CCC(N)=C(C#N)C1

> <IC50_uM>
0.933254301

> <pIC50>
6.03

> <Activity>
1

$$$$

  SciTegic10102310092D

 13 14  0  0  0  0            999 V2000
    2.6003   -1.4977    0.0000 O   0  0
    1.2990   -0.7500    0.0000 C   0  0
    1.2990    0.7500    0.0000 N   0  0
    0.0000    1.5000    0.0000 C   0  0
   -1.2990    0.7500    0.0000 N   0  0
   -1.2990   -0.7500    0.0000 C   0  0
    0.0000   -1.5000    0.0000 C   0  0
    0.0000   -3.0000    0.0000 N   0  0
   -1.2990   -3.7500    0.0000 C   0  0
   -2.5981   -3.0000    0.0000 C   0  0
   -2.5981   -1.5000    0.0000 S   0  0
   -1.2990   -5.2500    0.0000 N   0  0
    3.8983   -0.7459    0.0000 C   0  0
  1  2  1  0
  2  3  2  0
  3  4  1  0
  4  5  1  0
  5  6  2  0
  6  7  1  0
  7  2  1  0
  7  8  2  0
  8  9  1  0
  9 10  2  0
 10 11  1  0
 11  6  1  0
  9 12  1  0
  1 13  1  0
M  END
> <Smiles>
O(C1=NCN=C2C1=NC(=CS2)N)C

> <IC50_uM>
0.933254301

> <pIC50>
6.03

> <Activity>
1

$$$$

  SciTegic10102310092D

 17 18  0  0  0  0            999 V2000
    2.5973   -1.5031    0.0000 O   0  0
    1.2990   -0.7500    0.0000 C   0  0
    1.2990    0.7500    0.0000 C   0  0
    0.0000    1.5000    0.0000 C   0  0
   -1.2990    0.7500    0.0000 C   0  0
   -1.2990   -0.7500    0.0000 C   0  0
   -2.5987   -1.5004    0.0000 C   0  0
   -3.8991   -0.7525    0.0000 N   0  0
   -5.1969   -1.5046    0.0000 N   0  0
   -5.1945   -3.0046    0.0000 C   0  0
   -6.4924   -3.7566    0.0000 O   0  0
   -3.8943   -3.7525    0.0000 C   0  0
   -2.5964   -3.0004    0.0000 C   0  0
    0.0000   -1.5000    0.0000 C   0  0
    2.5972    1.5031    0.0000 O   0  0
    2.5951    3.0031    0.0000 C   0  0
    2.5951   -3.0031    0.0000 C   0  0
  1  2  1  0
  2  3  2  0
  3  4  1  0
  4  5  2  0
  5  6  1  0
  6  7  1  0
  7  8  2  0
  8  9  1  0
  9 10  1  0
 10 11  2  0
 10 12  1  0
 12 13  1  0
 13  7  1  0
  6 14  2  0
 14  2  1  0
  3 15  1  0
 15 16  1  0
  1 17  1  0
M  END
> <Smiles>
O(c1c(ccc(C2=NNC(=O)CC2)c1)OC)C

> <IC50_uM>
0.933254301

> <pIC50>
6.03

> <Activity>
1

$$$$

  SciTegic10102310092D

 14 15  0  0  0  0            999 V2000
    0.3647   -4.2416    0.0000 C   0  0
    0.7488   -2.7970    0.0000 C   0  0  3  0  0  0
    2.0479   -2.0470    0.0000 C   0  0
    1.2990   -0.7500    0.0000 C   0  0
    1.2990    0.7500    0.0000 C   0  0
    0.0000    1.5000    0.0000 C   0  0
    0.0031    3.0008    0.0000 O   0  0
    1.3032    3.7490    0.0000 C   0  0
   -1.2990    0.7500    0.0000 C   0  0
   -2.6003    1.4977    0.0000 O   0  0
   -3.8983    0.7459    0.0000 C   0  0
   -1.2990   -0.7500    0.0000 C   0  0
    0.0000   -1.5000    0.0000 C   0  0
    1.4267   -5.3009    0.0000 N   0  0
  2  1  1  4
  2  3  1  0
  3  4  1  0
  4  5  2  0
  5  6  1  0
  6  7  1  0
  7  8  1  0
  6  9  2  0
  9 10  1  0
 10 11  1  0
  9 12  1  0
  4 13  1  0
 13  2  1  0
 13 12  2  0
  1 14  1  0
M  END
> <Smiles>
C(C1Cc(cc(OC)c(OC)c2)c12)N

> <IC50_uM>
0.933254301

> <pIC50>
6.03

> <Activity>
1

$$$$

  SciTegic10102310092D

 17 19  0  0  0  0            999 V2000
    0.0887   -2.2858    0.0000 C   0  0
    0.1097   -0.7860    0.0000 C   0  0  3  0  0  0
    1.4440   -1.4074    0.0000 C   0  0
    1.1881    0.0000    0.0000 C   0  0
    0.0000    0.5484    0.0000 C   0  0  3  0  0  0
   -1.5537    0.0000    0.0000 C   0  0
   -1.4945    1.4988    0.0000 C   0  0
   -2.8657   -0.7271    0.0000 C   0  0
   -1.3709   -1.4257    0.0000 O   0  0
    0.0000    2.1386    0.0000 C   0  0
    0.3656    1.0236    0.0000 C   0  0
    1.8605    1.1557    0.0000 N   0  0
    2.5243   -0.2042    0.0000 C   0  0
    4.0202   -0.3147    0.0000 C   0  0
    4.8639    0.9255    0.0000 C   0  0
    4.2117    2.2763    0.0000 C   0  0
    2.7157    2.3868    0.0000 C   0  0
  2  1  1  4
  2  3  1  0
  3  4  1  0
  5  4  1  4
  5  6  1  0
  6  7  1  0
  6  8  1  0
  6  9  1  0
  9  2  1  0
  5 10  1  0
 10 11  2  0
 11  2  1  0
 11 12  1  0
 12 13  1  0
 13 14  1  0
 14 15  1  0
 15 16  1  0
 16 17  1  0
 17 12  1  0
M  END
> <Smiles>
CC12CCC(C(C)(C)O1)C=C2N3CCCCC3

> <IC50_uM>
0.933254301

> <pIC50>
6.03

> <Activity>
1

$$$$

  SciTegic10102310092D

 13 13  0  0  0  0            999 V2000
    2.6168    1.8094    0.0000 O   0  0
    2.1595    0.3808    0.0000 S   0  0
    1.4095    1.6798    0.0000 O   0  0
    0.0000    2.1929    0.0000 C   0  0
   -1.4095    1.6798    0.0000 C   0  0
   -2.1595    0.3808    0.0000 C   0  0
   -1.8991   -1.0964    0.0000 C   0  0
   -0.7500   -2.0606    0.0000 O   0  0
    0.7500   -2.0606    0.0000 S   0  0
   -0.2586   -3.1709    0.0000 O   0  0
    2.2363   -2.2629    0.0000 O   0  0
    1.8991   -1.0964    0.0000 C   0  0
    3.0779   -0.8052    0.0000 O   0  0
  1  2  2  0
  2  3  1  0
  3  4  1  0
  4  5  1  0
  5  6  1  0
  6  7  1  0
  7  8  1  0
  8  9  1  0
  9 10  2  0
  9 11  2  0
  9 12  1  0
 12  2  1  0
  2 13  2  0
M  END
> <Smiles>
O=S1(OCCCCOS(=O)(=O)C1)=O

> <IC50_uM>
0.933254301

> <pIC50>
6.03

> <Activity>
1

$$$$

  SciTegic10102310092D

 13 13  0  0  0  0            999 V2000
    2.6636   -1.3247    0.0000 O   0  0
    1.9598    0.0000    0.0000 S   0  0
    1.3858    1.3858    0.0000 O   0  0
    0.0000    1.9598    0.0000 C   0  0
   -1.3858    1.3858    0.0000 C   0  0
   -1.9598    0.0000    0.0000 C   0  0
   -1.3858   -1.3858    0.0000 O   0  0
    0.0000   -1.9598    0.0000 S   0  0
    1.3247   -2.6636    0.0000 O   0  0
   -1.3246   -2.6637    0.0000 O   0  0
    1.3858   -1.3858    0.0000 C   0  0
    2.4465   -2.4465    0.0000 C   0  0
    2.6637    1.3246    0.0000 O   0  0
  1  2  2  0
  2  3  1  0
  3  4  1  0
  4  5  1  0
  5  6  1  0
  6  7  1  0
  7  8  1  0
  8  9  2  0
  8 10  2  0
  8 11  1  0
 11  2  1  0
 11 12  1  0
  2 13  2  0
M  END
> <Smiles>
O=S1(OCCCOS(=O)(=O)C1C)=O

> <IC50_uM>
0.933254301

> <pIC50>
6.03

> <Activity>
1

$$$$

  SciTegic10102310092D

 13 13  0  0  0  0            999 V2000
    2.6719    0.7452    0.0000 O   0  0
    1.6852   -0.3846    0.0000 S   0  0
    1.3514    1.0778    0.0000 O   0  0
    0.0000    1.7286    0.0000 C   0  0  3  0  0  0
   -1.3515    1.0777    0.0000 C   0  0
   -1.6852   -0.3847    0.0000 O   0  0
   -0.7500   -1.5574    0.0000 S   0  0
   -2.2485   -1.6244    0.0000 O   0  0
    0.1318   -2.7708    0.0000 O   0  0
    0.7500   -1.5574    0.0000 C   0  0
   -0.0031    3.2314    0.0000 C   0  0
   -1.3032    3.9795    0.0000 C   0  0
    2.0841   -1.8306    0.0000 O   0  0
  1  2  2  0
  2  3  1  0
  3  4  1  0
  4  5  1  0
  5  6  1  0
  6  7  1  0
  7  8  2  0
  7  9  2  0
  7 10  1  0
 10  2  1  0
  4 11  1  4
 11 12  1  0
  2 13  2  0
M  END
> <Smiles>
O=S1(OC(COS(=O)(=O)C1)CC)=O

> <IC50_uM>
0.933254301

> <pIC50>
6.03

> <Activity>
1

$$$$

  SciTegic10102310092D

 13 13  0  0  0  0            999 V2000
    2.6719    0.7452    0.0000 O   0  0
    1.6852   -0.3846    0.0000 S   0  0
    1.3514    1.0778    0.0000 O   0  0
    0.0000    1.7286    0.0000 C   0  0  3  0  0  0
   -1.3515    1.0777    0.0000 C   0  0  3  0  0  0
   -2.5242    2.0130    0.0000 C   0  0
   -1.6852   -0.3847    0.0000 O   0  0
   -0.7500   -1.5574    0.0000 S   0  0
   -2.2485   -1.6244    0.0000 O   0  0
    0.1318   -2.7708    0.0000 O   0  0
    0.7500   -1.5574    0.0000 C   0  0
    0.0000    3.2286    0.0000 C   0  0
    2.0841   -1.8306    0.0000 O   0  0
  1  2  2  0
  2  3  1  0
  3  4  1  0
  4  5  1  0
  5  6  1  4
  5  7  1  0
  7  8  1  0
  8  9  2  0
  8 10  2  0
  8 11  1  0
 11  2  1  0
  4 12  1  4
  2 13  2  0
M  END
> <Smiles>
O=S1(OC(C(C)OS(=O)(=O)C1)C)=O

> <IC50_uM>
0.933254301

> <pIC50>
6.03

> <Activity>
1

$$$$

  SciTegic10102310092D

 13 13  0  0  0  0            999 V2000
    3.1497   -0.7220    0.0000 C   0  0
    1.6852   -0.3846    0.0000 C   0  0
    1.3514    1.0778    0.0000 S   0  0
    0.0000    1.7286    0.0000 O   0  0
   -1.3515    1.0777    0.0000 C   0  0
   -1.6852   -0.3847    0.0000 C   0  0
   -0.7500   -1.5574    0.0000 O   0  0
    0.7500   -1.5574    0.0000 S   0  0
    2.2485   -1.6243    0.0000 O   0  0
   -0.1318   -2.7708    0.0000 O   0  0
    2.7306    0.4879    0.0000 O   0  0
    1.0834    2.5536    0.0000 O   0  0
    3.5898   -2.1560    0.0000 C   0  0
  1  2  1  0
  2  3  1  0
  3  4  1  0
  4  5  1  0
  5  6  1  0
  6  7  1  0
  7  8  1  0
  8  2  1  0
  8  9  2  0
  8 10  2  0
  3 11  2  0
  3 12  2  0
  1 13  1  0
M  END
> <Smiles>
C(C1S(OCCOS1(=O)=O)(=O)=O)C

> <IC50_uM>
0.933254301

> <pIC50>
6.03

> <Activity>
1

$$$$

  SciTegic10102310092D

 17 18  0  0  0  0            999 V2000
    2.5955   -3.0038    0.0000 C   0  0
    2.5978   -1.5030    0.0000 C   0  0
    1.2990   -0.7500    0.0000 C   0  0
    1.2990    0.7500    0.0000 C   0  0
    0.0000    1.5000    0.0000 C   0  0
   -1.2990    0.7500    0.0000 C   0  0
   -1.2990   -0.7500    0.0000 C   0  0
    0.0000   -1.5000    0.0000 C   0  0
    2.5641   -0.0238    0.0000 C   0  0
    3.8644    0.7241    0.0000 C   0  0
    5.1622   -0.0281    0.0000 N   0  0
    6.4625    0.7197    0.0000 C   0  0
    5.1597   -1.5281    0.0000 C   0  0
    3.8594   -2.2759    0.0000 C   0  0
    1.2951   -3.7514    0.0000 O   0  0
    3.8937   -3.7570    0.0000 C   0  0
    3.8914   -5.2570    0.0000 C   0  0
  1  2  1  0
  2  3  1  0
  3  4  2  0
  4  5  1  0
  5  6  2  0
  6  7  1  0
  7  8  2  0
  8  3  1  0
  2  9  1  0
  9 10  1  0
 10 11  1  0
 11 12  1  0
 11 13  1  0
 13 14  1  0
 14  2  1  0
  1 15  2  0
  1 16  1  0
 16 17  1  0
M  END
> <Smiles>
C(C1(c2ccccc2)CCN(C)CC1)(=O)CC

> <IC50_uM>
0.933254301

> <pIC50>
6.03

> <Activity>
1

$$$$

  SciTegic10102310092D

 41 42  0  0  0  0            999 V2000
    1.2990   -0.7500    0.0000 C   0  0
    2.5973   -1.5031    0.0000 C   0  0
    3.8976   -0.7553    0.0000 O   0  0
    2.5951   -3.0031    0.0000 O   0  0
    1.2990    0.7500    0.0000 C   0  0
    2.5972    1.5031    0.0000 O   0  0
    2.5951    3.0031    0.0000 C   0  0
    0.0000    1.5000    0.0000 C   0  0
   -0.0044    3.0009    0.0000 C   0  0
    1.2918    3.7573    0.0000 C   0  0
    1.2858    5.2582    0.0000 C   0  0
    2.5820    6.0146    0.0000 C   0  0
    2.5759    7.5155    0.0000 C   0  0
    3.8721    8.2719    0.0000 C   0  0
    3.8661    9.7728    0.0000 C   0  0
    5.1623   10.5293    0.0000 C   0  0
    5.1562   12.0301    0.0000 C   0  0
    6.4524   12.7866    0.0000 C   0  0
    6.4464   14.2874    0.0000 C   0  0
    7.7426   15.0439    0.0000 C   0  0
    7.7365   16.5447    0.0000 C   0  0
    9.0327   17.3012    0.0000 C   0  0
    9.0266   18.8020    0.0000 C   0  0
   10.3229   19.5585    0.0000 C   0  0
   10.3168   21.0585    0.0000 C   0  0
   -1.3060    3.7482    0.0000 C   0  0
   -2.6034    2.9951    0.0000 C   0  0
   -2.6030    1.4943    0.0000 O   0  0
   -3.9013    0.7431    0.0000 C   0  0
   -3.9043    3.7419    0.0000 C   0  0
   -5.2037    2.9911    0.0000 C   0  0
   -5.2027    1.4911    0.0000 O   0  0
   -6.5035    3.7398    0.0000 O   0  0
   -3.9079    5.2419    0.0000 C   0  0
   -2.6107    5.9951    0.0000 C   0  0
   -2.6143    7.4951    0.0000 Br  0  0
   -1.3098    5.2482    0.0000 C   0  0
   -1.2990    0.7500    0.0000 C   0  0
   -1.2990   -0.7500    0.0000 C   0  0
   -2.5981   -1.5000    0.0000 Br  0  0
    0.0000   -1.5000    0.0000 C   0  0
  1  2  1  0
  2  3  1  0
  2  4  2  0
  1  5  2  0
  5  6  1  0
  6  7  1  0
  5  8  1  0
  8  9  1  0
  9 10  2  0
 10 11  1  0
 11 12  1  0
 12 13  1  0
 13 14  1  0
 14 15  1  0
 15 16  1  0
 16 17  1  0
 17 18  1  0
 18 19  1  0
 19 20  1  0
 20 21  1  0
 21 22  1  0
 22 23  1  0
 23 24  1  0
 24 25  1  0
  9 26  1  0
 26 27  2  0
 27 28  1  0
 28 29  1  0
 27 30  1  0
 30 31  1  0
 31 32  1  0
 31 33  2  0
 30 34  2  0
 34 35  1  0
 35 36  1  0
 35 37  2  0
 37 26  1  0
  8 38  2  0
 38 39  1  0
 39 40  1  0
 39 41  2  0
 41  1  1  0
M  END
> <Smiles>
c1(C(O)=O)c(OC)c(C(=CCCCCCCCCCCCCCCC)c2c(OC)c(C(O)=O)cc(Br)c2)cc(Br)c1

> <IC50_uM>
0.933254301

> <pIC50>
6.03

> <Activity>
1

$$$$

  SciTegic10102310092D

 14 16  0  0  0  0            999 V2000
   -2.5400   -1.3600    0.0000 C   0  0
   -2.6000   -2.1800    0.0000 C   0  0  3  0  0  0
   -4.4800   -2.2100    0.0000 C   0  0
   -2.8500   -1.5200    0.0000 C   0  0  3  0  0  0
   -1.4000   -1.8100    0.0000 C   0  0
    0.4600   -1.4800    0.0000 C   0  0  3  0  0  0
    1.9377   -1.2222    0.0000 N   0  0
    0.4900   -0.6700    0.0000 C   0  0
   -2.8500   -0.7400    0.0000 C   0  0
   -1.2300   -0.3200    0.0000 C   0  0  3  0  0  0
   -1.2964    1.1627    0.0000 C   0  0
   -0.0292    1.9653    0.0000 O   0  0
   -2.6249    1.8592    0.0000 O   0  0
   -1.1200   -2.5800    0.0000 C   0  0
  2  1  1  4
  2  3  1  0
  4  3  1  4
  4  5  1  0
  5  6  1  0
  6  7  1  4
  6  8  1  0
  4  9  1  0
  9 10  1  0
 10  1  1  0
 10  8  1  0
 10 11  1  4
 11 12  1  0
 11 13  2  0
  2 14  1  0
 14  6  1  0
M  END
> <Smiles>
C1C(CC(CC2(N)C3)CC13C(O)=O)C2

> <IC50_uM>
0.933254301

> <pIC50>
6.03

> <Activity>
1

$$$$

  SciTegic10102310092D

 16 17  0  0  0  0            999 V2000
    0.7500   -1.0323    0.0000 C   0  0  3  0  0  0
    1.2135    0.3943    0.0000 C   0  0  3  0  0  0
    0.0000    1.2760    0.0000 O   0  0
   -1.2135    0.3943    0.0000 C   0  0
   -0.7500   -1.0323    0.0000 C   0  0  3  0  0  0
   -1.6332   -2.2426    0.0000 O   0  0
   -3.1255   -2.0835    0.0000 C   0  0
   -4.0102   -3.2959    0.0000 C   0  0
   -5.5018   -3.1370    0.0000 C   0  0
   -3.4025   -4.6673    0.0000 C   0  0
   -4.8938   -4.5080    0.0000 C   0  0
   -3.7332   -0.7122    0.0000 O   0  0
    2.7115    0.3950    0.0000 C   0  0  3  0  0  0
    3.5929    1.6087    0.0000 O   0  0
    3.1750   -1.0316    0.0000 C   0  0
    1.9615   -1.9133    0.0000 O   0  0
  1  2  1  0
  2  3  1  4
  3  4  1  0
  4  5  1  0
  5  1  1  0
  5  6  1  4
  6  7  1  0
  7  8  1  0
  8  9  1  0
  8 10  1  0
  8 11  1  0
  7 12  2  0
  2 13  1  0
 13 14  1  4
 13 15  1  0
 15 16  1  0
  1 16  1  4
M  END
> <Smiles>
C12C(OCC1OC(C(C)(C)C)=O)C(O)CO2

> <IC50_uM>
0.933254301

> <pIC50>
6.03

> <Activity>
1

$$$$

  SciTegic10102310092D

 17 19  0  0  0  0            999 V2000
    3.8805   -1.4410    0.0000 O   0  0
    2.4133   -1.7530    0.0000 C   0  0  3  0  0  0
    1.2990   -0.7500    0.0000 C   0  0  3  0  0  0
    1.2990    0.7500    0.0000 O   0  0
    0.0000    1.5000    0.0000 C   0  0
    0.0000    3.0000    0.0000 O   0  0
   -1.2990    0.7500    0.0000 C   0  0
   -1.2990   -0.7500    0.0000 C   0  0
    0.0000   -1.5000    0.0000 C   0  0  3  0  0  0
    0.3114   -2.9665    0.0000 O   0  0
    1.8032   -3.1233    0.0000 C   0  0  3  0  0  0
    2.5536   -4.4230    0.0000 C   0  0
    1.9048   -5.7699    0.0000 C   0  0
    2.7504   -7.0088    0.0000 C   0  0
    4.2462   -6.8960    0.0000 C   0  0
    4.8963   -5.5442    0.0000 C   0  0
    4.0507   -4.3052    0.0000 C   0  0
  2  1  1  4
  2  3  1  0
  3  4  1  4
  4  5  1  0
  5  6  2  0
  5  7  1  0
  7  8  2  0
  3  9  1  0
  9  8  1  4
  9 10  1  0
 10 11  1  0
 11  2  1  0
 11 12  1  4
 12 13  2  0
 13 14  1  0
 14 15  2  0
 15 16  1  0
 16 17  2  0
 17 12  1  0
M  END
> <Smiles>
OC1C(OC(=O)C=C2)C2OC1c3ccccc3

> <IC50_uM>
0.933254301

> <pIC50>
6.03

> <Activity>
1

$$$$

  SciTegic10102310092D

 14 14  0  0  0  0            999 V2000
    2.5981   -1.5000    0.0000 O   0  0
    1.2990   -0.7500    0.0000 C   0  0
    1.2990    0.7500    0.0000 N   0  0
    0.0000    1.5000    0.0000 N   0  0
    0.0031    3.0008    0.0000 C   0  0
    1.3039    3.7494    0.0000 C   0  0
    1.3070    5.2502    0.0000 C   0  0
    2.6078    5.9988    0.0000 N   0  0
    2.6109    7.4988    0.0000 O   0  0
    0.0092    6.0025    0.0000 C   0  0
   -1.2990    0.7500    0.0000 C   0  0
   -2.5981    1.5000    0.0000 O   0  0
   -1.2990   -0.7500    0.0000 C   0  0
    0.0000   -1.5000    0.0000 C   0  0
  1  2  2  0
  2  3  1  0
  3  4  1  0
  4  5  1  0
  5  6  1  0
  6  7  1  0
  7  8  2  0
  8  9  1  0
  7 10  1  0
  4 11  1  0
 11 12  2  0
 11 13  1  0
 13 14  2  0
 14  2  1  0
M  END
> <Smiles>
O=C1NN(CC\C(=N\O)\C)C(=O)C=C1

> <IC50_uM>
0.933254301

> <pIC50>
6.03

> <Activity>
1

$$$$

  SciTegic10102310092D

 14 14  0  0  0  0            999 V2000
    1.2990   -0.7500    0.0000 C   0  0
    1.2990    0.7500    0.0000 N   0  0
    0.0000    1.5000    0.0000 N   0  0
    0.0031    3.0008    0.0000 C   0  0
    1.3039    3.7494    0.0000 C   0  0
    1.3070    5.2502    0.0000 C   0  0
    1.3100    6.7502    0.0000 N   0  0
   -1.2990    0.7500    0.0000 C   0  0
   -2.5981    1.5000    0.0000 O   0  0
   -1.2990   -0.7500    0.0000 C   0  0
   -2.5981   -1.5000    0.0000 Cl  0  0
    0.0000   -1.5000    0.0000 C   0  0
    0.0000   -3.0000    0.0000 Cl  0  0
    2.5981   -1.5000    0.0000 O   0  0
  1  2  1  0
  2  3  1  0
  3  4  1  0
  4  5  1  0
  5  6  1  0
  6  7  3  0
  3  8  1  0
  8  9  2  0
  8 10  1  0
 10 11  1  0
 10 12  2  0
 12  1  1  0
 12 13  1  0
  1 14  2  0
M  END
> <Smiles>
C1(NN(CCC#N)C(=O)C(Cl)=C1Cl)=O

> <IC50_uM>
0.933254301

> <pIC50>
6.03

> <Activity>
1

$$$$

  SciTegic10102310092D

 15 14  0  0  0  0            999 V2000
    6.5000    0.7500    0.0000 C   0  0  3  0  0  0
    5.2000    0.0000    0.0000 C   0  0
    3.9000    0.7500    0.0000 C   0  0
    2.6000    0.0000    0.0000 C   0  0
    1.3000    0.7500    0.0000 C   0  0
    0.0007    0.0004    0.0000 O   0  0
    1.3000    2.2500    0.0000 C   0  0
    7.7999    0.0000    0.0000 C   0  0
    9.0999    0.7500    0.0000 C   0  0  3  0  0  0
   10.3992    0.0004    0.0000 O   0  0
    9.0999    2.2500    0.0000 C   0  0
    6.5030    2.2508    0.0000 Si  0  0
    7.8031    2.9990    0.0000 C   0  0
    6.5054    3.7508    0.0000 C   0  0
    5.2053    3.0031    0.0000 C   0  0
  1  2  1  4
  2  3  1  0
  3  4  1  0
  4  5  1  0
  5  6  2  0
  5  7  1  0
  1  8  1  0
  8  9  1  0
  9 10  1  4
  9 11  1  0
  1 12  1  0
 12 13  1  0
 12 14  1  0
 12 15  1  0
M  END
> <Smiles>
C(CCCC(=O)C)(CC(O)C)[Si](C)(C)C

> <IC50_uM>
0.933254301

> <pIC50>
6.03

> <Activity>
1

$$$$

  SciTegic10102310092D

 17 19  0  0  0  0            999 V2000
    1.2990   -0.7500    0.0000 C   0  0
    1.2990    0.7500    0.0000 C   0  0
    0.0000    1.5000    0.0000 C   0  0
   -0.3115    2.9665    0.0000 O   0  0
   -1.8032    3.1233    0.0000 C   0  0
   -2.5536    4.4230    0.0000 C   0  0  3  0  0  0
   -1.9049    5.7699    0.0000 C   0  0
   -0.4091    5.8823    0.0000 O   0  0
   -2.7505    7.0088    0.0000 N   0  0
   -4.2462    6.8959    0.0000 C   0  0
   -5.0919    8.1348    0.0000 O   0  0
   -4.8964    5.5441    0.0000 C   0  0
   -4.0507    4.3052    0.0000 C   0  0
   -2.4133    1.7530    0.0000 N   0  0
   -1.2990    0.7500    0.0000 C   0  0
   -1.2990   -0.7500    0.0000 C   0  0
    0.0000   -1.5000    0.0000 C   0  0
  1  2  2  0
  2  3  1  0
  3  4  1  0
  4  5  1  0
  6  5  1  4
  6  7  1  0
  7  8  2  0
  7  9  1  0
  9 10  1  0
 10 11  2  0
 10 12  1  0
 12 13  1  0
 13  6  1  0
  5 14  2  0
  3 15  2  0
 15 14  1  0
 15 16  1  0
 16 17  2  0
 17  1  1  0
M  END
> <Smiles>
c1cc(oc(C2C(=O)NC(=O)CC2)n3)c3cc1

> <IC50_uM>
0.933254301

> <pIC50>
6.03

> <Activity>
1

$$$$

  SciTegic10102310092D

 17 17  0  0  0  0            999 V2000
    1.2990   -0.7500    0.0000 C   0  0
    2.5981   -1.5000    0.0000 C   0  0
    1.2990    0.7500    0.0000 C   0  0
    2.5972    1.5031    0.0000 N   0  0
    2.5951    3.0039    0.0000 C   0  0
    3.8933    3.7570    0.0000 C   0  0
    3.8912    5.2578    0.0000 C   0  0
    5.1894    6.0109    0.0000 C   0  0
    5.1872    7.5118    0.0000 O   0  0
    6.4847    8.2644    0.0000 C   0  0
    6.4897    5.2632    0.0000 O   0  0
    1.2948    3.7517    0.0000 O   0  0
    0.0000    1.5000    0.0000 C   0  0
   -1.2990    0.7500    0.0000 C   0  0
   -2.5981    1.5000    0.0000 C   0  0
   -1.2990   -0.7500    0.0000 C   0  0
    0.0000   -1.5000    0.0000 C   0  0
  1  2  1  0
  1  3  2  0
  3  4  1  0
  4  5  1  0
  5  6  1  0
  6  7  1  0
  7  8  1  0
  8  9  1  0
  9 10  1  0
  8 11  2  0
  5 12  2  0
  3 13  1  0
 13 14  2  0
 14 15  1  0
 14 16  1  0
 16 17  2  0
 17  1  1  0
M  END
> <Smiles>
c1(C)c(NC(CCC(OC)=O)=O)cc(C)cc1

> <IC50_uM>
0.933254301

> <pIC50>
6.03

> <Activity>
1

$$$$

  SciTegic10102310092D

 17 18  0  0  0  0            999 V2000
    0.7500   -1.0323    0.0000 C   0  0
    1.2135    0.3943    0.0000 C   0  0
    0.0000    1.2760    0.0000 N   0  0
   -1.2135    0.3943    0.0000 C   0  0
   -2.6394    0.8543    0.0000 C   0  0
   -3.7533   -0.1515    0.0000 N   0  0
   -5.1816    0.3093    0.0000 C   0  0
   -6.2955   -0.6966    0.0000 C   0  0
   -7.7238   -0.2358    0.0000 C   0  0
   -8.8377   -1.2416    0.0000 C   0  0
  -10.2898   -0.9203    0.0000 C   0  0
  -11.0353   -2.2219    0.0000 N   0  0
  -10.0277   -3.3331    0.0000 C   0  0
  -10.3344   -4.8014    0.0000 N   0  0
   -8.6595   -2.7182    0.0000 N   0  0
   -2.9539    2.3210    0.0000 O   0  0
   -0.7500   -1.0323    0.0000 C   0  0
  1  2  2  0
  2  3  1  0
  3  4  1  0
  4  5  1  0
  5  6  1  0
  6  7  1  0
  7  8  1  0
  8  9  2  0
  9 10  1  0
 10 11  2  0
 11 12  1  0
 12 13  1  0
 13 14  2  0
 13 15  1  0
 15 10  1  0
  5 16  2  0
  4 17  2  0
 17  1  1  0
M  END
> <Smiles>
c1c[nH]c(C(NC\C=C\C2=CNC(=N)N2)=O)c1

> <IC50_uM>
0.933254301

> <pIC50>
6.03

> <Activity>
1

$$$$

  SciTegic10102310092D

 17 19  0  0  0  0            999 V2000
    1.2990   -0.7500    0.0000 C   0  0
    1.2990    0.7500    0.0000 C   0  0
    2.4133    1.7530    0.0000 C   0  0
    1.8032    3.1233    0.0000 C   0  0  3  0  0  0
    0.3114    2.9665    0.0000 C   0  0  3  0  0  0
   -0.2967    4.3175    0.0000 N   0  0
    0.8180    5.3212    0.0000 C   0  0
    0.6612    6.8130    0.0000 O   0  0
    2.1171    4.5713    0.0000 N   0  0
    3.4886    5.1786    0.0000 C   0  0
   -1.1800    2.8065    0.0000 O   0  0
    3.2953    3.2771    0.0000 O   0  0
    3.8805    1.4410    0.0000 O   0  0
    0.0000    1.5000    0.0000 C   0  0
   -1.2990    0.7500    0.0000 C   0  0
   -1.2990   -0.7500    0.0000 C   0  0
    0.0000   -1.5000    0.0000 C   0  0
  1  2  2  0
  2  3  1  0
  3  4  1  0
  4  5  1  0
  5  6  1  0
  6  7  1  0
  7  8  2  0
  7  9  1  0
  9  4  1  0
  9 10  1  0
  5 11  1  4
  4 12  1  4
  3 13  2  0
  2 14  1  0
 14  5  1  0
 14 15  2  0
 15 16  1  0
 16 17  2  0
 17  1  1  0
M  END
> <Smiles>
c1c(C(C2(C3(NC(=O)N2C)O)O)=O)c3ccc1

> <IC50_uM>
0.933254301

> <pIC50>
6.03

> <Activity>
1

$$$$

  SciTegic10102310092D

 16 18  0  0  0  0            999 V2000
    1.2990   -0.7500    0.0000 C   0  0
    1.2990    0.7500    0.0000 C   0  0
    0.0000    1.5000    0.0000 C   0  0
   -0.3115    2.9665    0.0000 N   0  0
    0.2984    4.3347    0.0000 C   0  0  3  0  0  0
    1.2851    3.2049    0.0000 C   0  0
    0.7410    5.7679    0.0000 O   0  0
   -0.8163    5.3384    0.0000 C   0  0
   -2.1154    4.5884    0.0000 S   0  0
   -1.8032    3.1233    0.0000 C   0  0
   -2.4133    1.7530    0.0000 C   0  0
   -3.8781    1.4381    0.0000 C   0  0
   -4.3393    0.0108    0.0000 O   0  0
   -1.2990    0.7500    0.0000 C   0  0
   -1.2990   -0.7500    0.0000 C   0  0
    0.0000   -1.5000    0.0000 C   0  0
  1  2  2  0
  2  3  1  0
  3  4  1  0
  4  5  1  0
  5  6  1  4
  5  7  1  0
  5  8  1  0
  8  9  1  0
  4 10  1  0
 10  9  1  0
 10 11  2  0
 11 12  1  0
 12 13  2  0
  3 14  2  0
 14 11  1  0
 14 15  1  0
 15 16  2  0
 16  1  1  0
M  END
> <Smiles>
c1cc(n(C(C)(O)CS2)c2c3C=O)c3cc1

> <IC50_uM>
0.933254301

> <pIC50>
6.03

> <Activity>
1

$$$$

  SciTegic10102310092D

 15 17  0  0  0  0            999 V2000
    1.2990   -0.7500    0.0000 C   0  0
    1.2990    0.7500    0.0000 C   0  0
    2.4133    1.7530    0.0000 C   0  0
    1.8032    3.1233    0.0000 C   0  0
    0.3114    2.9665    0.0000 N   0  0
    2.6837    4.3363    0.0000 C   0  0
    2.0733    5.7065    0.0000 C   0  0
    4.1755    4.1795    0.0000 N   0  0
    4.7856    2.8092    0.0000 C   0  0
    3.9040    1.5957    0.0000 C   0  0
    0.0000    1.5000    0.0000 C   0  0
   -1.2990    0.7500    0.0000 C   0  0
   -1.2990   -0.7500    0.0000 C   0  0
   -2.5981   -1.5000    0.0000 O   0  0
    0.0000   -1.5000    0.0000 C   0  0
  1  2  2  0
  2  3  1  0
  3  4  2  0
  4  5  1  0
  4  6  1  0
  6  7  1  0
  6  8  2  0
  8  9  1  0
  9 10  2  0
 10  3  1  0
  2 11  1  0
 11  5  1  0
 11 12  2  0
 12 13  1  0
 13 14  1  0
 13 15  2  0
 15  1  1  0
M  END
> <Smiles>
c1c(c2c([nH]3)c(C)ncc2)c3cc(O)c1

> <IC50_uM>
0.933254301

> <pIC50>
6.03

> <Activity>
1

$$$$

  SciTegic10102310092D

 15 15  0  0  0  0            999 V2000
    2.5973   -1.5031    0.0000 C   0  0
    2.5951   -3.0039    0.0000 S   0  0
    3.8926   -3.7566    0.0000 C   0  0
    3.8999   -0.7576    0.0000 N   0  0
    5.1965   -1.5117    0.0000 C   0  0
    1.2990   -0.7500    0.0000 C   0  0
    1.2990    0.7500    0.0000 C   0  0
    2.5981    1.5000    0.0000 O   0  0
    0.0000    1.5000    0.0000 O   0  0
   -1.2990    0.7500    0.0000 C   0  0
   -1.2636    2.2496    0.0000 C   0  0
   -2.5801   -0.0303    0.0000 C   0  0
   -1.2990   -0.7500    0.0000 O   0  0
    0.0000   -1.5000    0.0000 C   0  0
    0.0000   -3.0000    0.0000 O   0  0
  1  2  1  0
  2  3  1  0
  1  4  1  0
  4  5  1  0
  1  6  2  0
  6  7  1  0
  7  8  2  0
  7  9  1  0
  9 10  1  0
 10 11  1  0
 10 12  1  0
 10 13  1  0
 13 14  1  0
 14  6  1  0
 14 15  2  0
M  END
> <Smiles>
C(SC)(NC)=C1C(=O)OC(C)(C)OC1=O

> <IC50_uM>
0.933254301

> <pIC50>
6.03

> <Activity>
1

$$$$

  SciTegic10102310092D

 17 18  0  0  0  0            999 V2000
    6.2484   -4.2507    0.0000 C   0  0
    5.2447   -3.1359    0.0000 C   0  0
    3.8933   -3.7570    0.0000 N   0  0
    2.5951   -3.0039    0.0000 C   0  0
    2.5973   -1.5031    0.0000 C   0  0  3  0  0  0
    1.2990   -0.7500    0.0000 C   0  0
    1.2990    0.7500    0.0000 C   0  0
    0.0000    1.5000    0.0000 C   0  0
   -1.2990    0.7500    0.0000 C   0  0
   -1.2990   -0.7500    0.0000 C   0  0
    0.0000   -1.5000    0.0000 C   0  0
    3.8976   -0.7553    0.0000 O   0  0
    4.0312   -5.2378    0.0000 C   0  0
    2.9122   -6.2341    0.0000 N   0  3
    1.4884   -5.7620    0.0000 O   0  5
    3.2149   -7.7032    0.0000 O   0  0
    5.4984   -5.5497    0.0000 N   0  0
  1  2  2  0
  2  3  1  0
  3  4  1  0
  4  5  1  0
  5  6  1  0
  6  7  2  0
  7  8  1  0
  8  9  2  0
  9 10  1  0
 10 11  2  0
 11  6  1  0
  5 12  1  4
  3 13  1  0
 13 14  1  0
 14 15  1  0
 14 16  2  0
 13 17  2  0
 17  1  1  0
M  CHG  2  14   1  15  -1
M  END
> <Smiles>
c1cn(CC(c2ccccc2)O)c([N+]([O-])=O)n1

> <IC50_uM>
0.933254301

> <pIC50>
6.03

> <Activity>
1

$$$$

  SciTegic10102310092D

 17 18  0  0  0  0            999 V2000
    1.2990   -0.7500    0.0000 C   0  0
    1.2990    0.7500    0.0000 C   0  0
    2.5981    1.5000    0.0000 C   0  0
    2.5981    3.0000    0.0000 C   0  0
    1.2990    3.7500    0.0000 N   0  0
    1.2959    5.2508    0.0000 C   0  0
   -0.0049    5.9994    0.0000 N   0  0
   -0.0080    7.5002    0.0000 C   0  0  3  0  0  0
   -1.3088    8.2488    0.0000 C   0  0
   -1.3119    9.7496    0.0000 O   0  0
   -2.6120   10.4977    0.0000 C   0  0
    1.2897    8.2525    0.0000 C   0  0
    0.0000    3.0000    0.0000 C   0  0
    0.0000    1.5000    0.0000 C   0  0
   -1.2990    0.7500    0.0000 C   0  0
   -1.2990   -0.7500    0.0000 C   0  0
    0.0000   -1.5000    0.0000 C   0  0
  1  2  2  0
  2  3  1  0
  3  4  1  0
  4  5  1  0
  5  6  1  0
  6  7  2  0
  7  8  1  0
  8  9  1  0
  9 10  1  0
 10 11  1  0
  8 12  1  4
  5 13  1  0
  2 14  1  0
 14 13  1  0
 14 15  2  0
 15 16  1  0
 16 17  2  0
 17  1  1  0
M  END
> <Smiles>
c1c(CCN(\C=N\C(COC)C)C2)c2ccc1

> <IC50_uM>
0.933254301

> <pIC50>
6.03

> <Activity>
1

$$$$

  SciTegic10102310092D

 16 17  0  0  0  0            999 V2000
    1.6321   -2.2464    0.0000 N   0  0
    0.7500   -1.0323    0.0000 C   0  0  3  0  0  0
    1.2135    0.3943    0.0000 C   0  0  3  0  0  0
    2.6401    0.8578    0.0000 O   0  0
    0.0000    1.2760    0.0000 C   0  0  3  0  0  0
    0.0000    2.7760    0.0000 O   0  0
   -1.2135    0.3943    0.0000 C   0  0  3  0  0  0
   -2.6394    0.8543    0.0000 C   0  0
   -3.7527   -0.1510    0.0000 O   0  0
   -0.7500   -1.0323    0.0000 O   0  0
    3.1114   -2.3441    0.0000 C   0  0
    4.0767   -1.1983    0.0000 N   0  0
    5.5536   -1.4607    0.0000 C   0  0
    3.4619   -3.8026    0.0000 N   0  0
    2.1831   -4.5866    0.0000 N   0  0
    1.0423   -3.6127    0.0000 N   0  0
  2  1  1  4
  2  3  1  0
  3  4  1  4
  3  5  1  0
  5  6  1  4
  5  7  1  0
  7  8  1  4
  8  9  1  0
  7 10  1  0
 10  2  1  0
  1 11  1  0
 11 12  1  0
 12 13  1  0
 11 14  2  0
 14 15  1  0
 15 16  2  0
 16  1  1  0
M  END
> <Smiles>
n1(C2C(O)C(O)C(CO)O2)c(NC)nnn1

> <IC50_uM>
0.933254301

> <pIC50>
6.03

> <Activity>
1

$$$$

  SciTegic10102310092D

 16 17  0  0  0  0            999 V2000
    1.2990   -0.7500    0.0000 O   0  0
    1.2990    0.7500    0.0000 C   0  0  3  0  0  0
    2.5981    1.5000    0.0000 C   0  0
    0.0000    1.5000    0.0000 C   0  0
    0.0031    3.0008    0.0000 N   0  0
    1.3032    3.7490    0.0000 O   0  0
   -1.2990    0.7500    0.0000 C   0  0  3  0  0  0
   -2.7248    1.2135    0.0000 O   0  0
   -3.6065    0.0000    0.0000 C   0  0
   -4.3369    1.3101    0.0000 C   0  0
   -4.3371   -1.3100    0.0000 C   0  0
   -2.7248   -1.2135    0.0000 O   0  0
   -1.2990   -0.7500    0.0000 C   0  0  3  0  0  0
    0.0000   -1.5000    0.0000 C   0  0  3  0  0  0
    0.0031   -3.0008    0.0000 O   0  0
    1.3032   -3.7490    0.0000 C   0  0
  1  2  1  0
  2  3  1  4
  2  4  1  0
  4  5  2  0
  5  6  1  0
  4  7  1  0
  7  8  1  4
  8  9  1  0
  9 10  1  0
  9 11  1  0
  9 12  1  0
  7 13  1  0
 13 12  1  4
 13 14  1  0
 14  1  1  0
 14 15  1  4
 15 16  1  0
M  END
> <Smiles>
O1C(C)\C(=N/O)\C(OC(C)(C)O2)C2C1OC

> <IC50_uM>
0.933254301

> <pIC50>
6.03

> <Activity>
1

$$$$

  SciTegic10102310092D

 15 16  0  0  0  0            999 V2000
    1.2990   -0.7500    0.0000 C   0  0
    1.2990    0.7500    0.0000 C   0  0  3  0  0  0
    1.2963    2.2453    0.0000 C   0  0
    2.7962    2.2628    0.0000 C   0  0
    0.5619    3.5532    0.0000 C   0  0
    0.0000    1.5000    0.0000 C   0  0  3  0  0  0
   -1.2990    0.7500    0.0000 C   0  0
   -1.2990   -0.7500    0.0000 C   0  0  3  0  0  0
   -1.2636   -2.2496    0.0000 C   0  0
   -2.5801    0.0303    0.0000 O   0  0
    0.0000   -1.5000    0.0000 C   0  0  3  0  0  0
    0.0031   -3.0008    0.0000 S   0  0
    1.3039   -3.7494    0.0000 C   0  0
    1.3070   -5.2502    0.0000 C   0  0
    2.6071   -5.9984    0.0000 O   0  0
  2  1  1  4
  2  3  1  0
  3  4  1  0
  3  5  1  0
  2  6  1  0
  6  3  1  0
  6  7  1  4
  7  8  1  0
  8  9  1  4
  8 10  1  0
  8 11  1  0
 11  1  1  0
 11 12  1  4
 12 13  1  0
 13 14  1  0
 14 15  1  0
M  END
> <Smiles>
C1C(C2(C)C)C2CC(C)(O)C1SCCO

> <IC50_uM>
0.933254301

> <pIC50>
6.03

> <Activity>
1

$$$$

  SciTegic10102310092D

 38 42  0  0  0  0            999 V2000
    2.5923    1.5001    0.0000 C   0  0
    3.8939    0.7546    0.0000 C   0  0
    5.1903    1.5091    0.0000 C   0  0
    6.4920    0.7636    0.0000 C   0  0
    7.7891    1.5185    0.0000 C   0  0
    9.0856    2.2729    0.0000 N   0  0
    6.4972   -0.7364    0.0000 C   0  0
    5.2007   -1.4909    0.0000 C   0  0
    5.2059   -2.9909    0.0000 C   0  0
    3.8990   -0.7455    0.0000 C   0  0
    2.6003   -1.4977    0.0000 O   0  0
    1.2990   -0.7500    0.0000 C   0  0
    1.2990    0.7500    0.0000 N   0  0
    0.0000    1.5000    0.0000 C   0  0
   -0.0031    3.0008    0.0000 N   0  0
   -1.3039    3.7494    0.0000 C   0  0  3  0  0  0
   -1.3092    5.2494    0.0000 C   0  0
   -2.6108    5.9949    0.0000 C   0  0
   -3.9073    5.2404    0.0000 C   0  0  3  0  0  0
   -5.2112    5.9836    0.0000 N   0  0
   -6.5072    5.2269    0.0000 C   0  0
   -7.8111    5.9701    0.0000 C   0  0
   -9.1076    5.2156    0.0000 C   0  0
  -10.4092    5.9611    0.0000 C   0  0
  -10.4145    7.4611    0.0000 C   0  0
   -9.1180    8.2156    0.0000 C   0  0
   -9.1202    9.7165    0.0000 C   0  0
  -10.4205   10.4642    0.0000 N   0  0
   -7.8227   10.4691    0.0000 O   0  0
   -7.8164    7.4702    0.0000 C   0  0
   -3.9021    3.7404    0.0000 C   0  0
   -2.6005    2.9949    0.0000 C   0  0
   -1.2990    0.7500    0.0000 N   0  0
   -1.2990   -0.7500    0.0000 C   0  0
   -2.4133   -1.7530    0.0000 C   0  0
   -1.8032   -3.1233    0.0000 C   0  0
   -0.3114   -2.9665    0.0000 S   0  0
    0.0000   -1.5000    0.0000 C   0  0
  1  2  1  0
  2  3  2  0
  3  4  1  0
  4  5  1  0
  5  6  3  0
  4  7  2  0
  7  8  1  0
  8  9  1  0
  8 10  2  0
 10  2  1  0
 10 11  1  0
 11 12  1  0
 12 13  2  0
 13 14  1  0
 14 15  1  0
 16 15  1  4
 16 17  1  0
 17 18  1  0
 18 19  1  0
 19 20  1  4
 20 21  1  0
 21 22  1  0
 22 23  2  0
 23 24  1  0
 24 25  2  0
 25 26  1  0
 26 27  1  0
 27 28  1  0
 27 29  2  0
 26 30  2  0
 30 22  1  0
 19 31  1  0
 31 32  1  0
 32 16  1  0
 14 33  2  0
 33 34  1  0
 34 35  1  0
 35 36  2  0
 36 37  1  0
 37 38  1  0
 38 12  1  0
 38 34  2  0
M  END
> <Smiles>
Cc1cc(C#N)cc(C)c1Oc1nc(NC2CCC(NCc3cccc(C(N)=O)c3)CC2)nc2ccsc12

> <IC50_uM>
0.935

> <pIC50>
6.029188389

> <Activity>
1

$$$$

  SciTegic10102310092D

 25 27  0  0  0  0            999 V2000
    3.8983   -0.7459    0.0000 C   0  0
    2.6003   -1.4977    0.0000 O   0  0
    1.2990   -0.7500    0.0000 C   0  0
    1.2990    0.7500    0.0000 C   0  0
    0.0000    1.5000    0.0000 C   0  0
   -1.2990    0.7500    0.0000 C   0  0
   -1.2990   -0.7500    0.0000 C   0  0
    0.0000   -1.5000    0.0000 C   0  0
   -0.0031   -3.0008    0.0000 C   0  0
   -1.3039   -3.7494    0.0000 N   0  0
   -1.3070   -5.2502    0.0000 C   0  0
   -2.6060   -6.0003    0.0000 C   0  0
   -2.6060   -7.5003    0.0000 C   0  0
   -1.3070   -8.2503    0.0000 N   0  0
   -0.0080   -7.5003    0.0000 C   0  0
    1.2933   -8.2481    0.0000 N   0  0
    2.5920   -7.4959    0.0000 C   0  0
    3.8937   -8.2413    0.0000 C   0  0
    5.1901   -7.4869    0.0000 C   0  0
    5.1850   -5.9869    0.0000 C   0  0
    6.4822   -5.2320    0.0000 C   0  0
    7.7786   -4.4776    0.0000 N   0  0
    3.8834   -5.2414    0.0000 C   0  0
    2.5869   -5.9958    0.0000 C   0  0
   -0.0079   -6.0003    0.0000 N   0  0
  1  2  1  0
  2  3  1  0
  3  4  2  0
  4  5  1  0
  5  6  2  0
  6  7  1  0
  7  8  2  0
  8  3  1  0
  8  9  1  0
  9 10  1  0
 10 11  1  0
 11 12  2  0
 12 13  1  0
 13 14  2  0
 14 15  1  0
 15 16  1  0
 16 17  1  0
 17 18  2  0
 18 19  1  0
 19 20  2  0
 20 21  1  0
 21 22  3  0
 20 23  1  0
 23 24  2  0
 24 17  1  0
 15 25  2  0
 25 11  1  0
M  END
> <Smiles>
COc1ccccc1CNc1ccnc(Nc2ccc(C#N)cc2)n1

> <IC50_uM>
0.936

> <pIC50>
6.028724151

> <Activity>
1

$$$$

  SciTegic10102310092D

 22 22  0  0  0  0            999 V2000
   14.2982   -0.7278    0.0000 C   0  0
   13.0002   -1.4796    0.0000 C   0  0
   11.6990   -0.7319    0.0000 C   0  0
   10.4003   -1.4841    0.0000 O   0  0
    9.0990   -0.7364    0.0000 C   0  0
    7.8003   -1.4887    0.0000 C   0  0
    6.4990   -0.7409    0.0000 C   0  0
    5.2003   -1.4932    0.0000 N   0  0
    3.8990   -0.7455    0.0000 C   0  0
    3.8964    0.7545    0.0000 S   0  0
    2.6003   -1.4977    0.0000 N   0  0
    1.2990   -0.7500    0.0000 C   0  0
    1.2990    0.7500    0.0000 C   0  0
    0.0000    1.5000    0.0000 C   0  0
    0.0031    3.0008    0.0000 O   0  0
    1.3032    3.7490    0.0000 C   0  0
   -1.2990    0.7500    0.0000 C   0  0
   -2.5981    1.5000    0.0000 Cl  0  0
   -1.2990   -0.7500    0.0000 C   0  0
    0.0000   -1.5000    0.0000 C   0  0
   -0.0031   -3.0008    0.0000 O   0  0
   -1.3032   -3.7490    0.0000 C   0  0
  1  2  1  0
  2  3  1  0
  3  4  1  0
  4  5  1  0
  5  6  1  0
  6  7  1  0
  7  8  1  0
  8  9  1  0
  9 10  2  0
  9 11  1  0
 11 12  1  0
 12 13  2  0
 13 14  1  0
 14 15  1  0
 15 16  1  0
 14 17  2  0
 17 18  1  0
 17 19  1  0
 19 20  2  0
 20 12  1  0
 20 21  1  0
 21 22  1  0
M  END
> <Smiles>
CCCOCCCNC(=S)Nc1cc(OC)c(Cl)cc1OC

> <IC50_uM>
0.94

> <pIC50>
6.026872146

> <Activity>
1

$$$$

  SciTegic10102310092D

 36 40  0  0  0  0            999 V2000
    2.5923    1.5001    0.0000 C   0  0
    3.8939    0.7546    0.0000 C   0  0
    5.1903    1.5091    0.0000 C   0  0
    6.4920    0.7636    0.0000 C   0  0
    7.7891    1.5185    0.0000 C   0  0
    9.0856    2.2729    0.0000 N   0  0
    6.4972   -0.7364    0.0000 C   0  0
    5.2007   -1.4909    0.0000 C   0  0
    5.2059   -2.9909    0.0000 C   0  0
    3.8990   -0.7455    0.0000 C   0  0
    2.6003   -1.4977    0.0000 O   0  0
    1.2990   -0.7500    0.0000 C   0  0
    1.2990    0.7500    0.0000 N   0  0
    0.0000    1.5000    0.0000 C   0  0
   -0.0031    3.0008    0.0000 N   0  0
   -1.3039    3.7494    0.0000 C   0  0  3  0  0  0
   -1.3092    5.2494    0.0000 C   0  0
   -2.6108    5.9949    0.0000 C   0  0
   -3.9073    5.2404    0.0000 C   0  0  3  0  0  0
   -5.2112    5.9836    0.0000 N   0  0
   -6.5072    5.2269    0.0000 C   0  0
   -7.8111    5.9701    0.0000 C   0  0
   -9.1076    5.2156    0.0000 C   0  0
  -10.4092    5.9611    0.0000 C   0  0
  -10.4145    7.4611    0.0000 C   0  0
  -11.7161    8.2066    0.0000 Br  0  0
   -9.1180    8.2156    0.0000 C   0  0
   -7.8164    7.4702    0.0000 C   0  0
   -3.9021    3.7404    0.0000 C   0  0
   -2.6005    2.9949    0.0000 C   0  0
   -1.2990    0.7500    0.0000 N   0  0
   -1.2990   -0.7500    0.0000 C   0  0
   -2.4133   -1.7530    0.0000 C   0  0
   -1.8032   -3.1233    0.0000 C   0  0
   -0.3114   -2.9665    0.0000 S   0  0
    0.0000   -1.5000    0.0000 C   0  0
  1  2  1  0
  2  3  2  0
  3  4  1  0
  4  5  1  0
  5  6  3  0
  4  7  2  0
  7  8  1  0
  8  9  1  0
  8 10  2  0
 10  2  1  0
 10 11  1  0
 11 12  1  0
 12 13  2  0
 13 14  1  0
 14 15  1  0
 16 15  1  4
 16 17  1  0
 17 18  1  0
 18 19  1  0
 19 20  1  4
 20 21  1  0
 21 22  1  0
 22 23  2  0
 23 24  1  0
 24 25  2  0
 25 26  1  0
 25 27  1  0
 27 28  2  0
 28 22  1  0
 19 29  1  0
 29 30  1  0
 30 16  1  0
 14 31  2  0
 31 32  1  0
 32 33  1  0
 33 34  2  0
 34 35  1  0
 35 36  1  0
 36 12  1  0
 36 32  2  0
M  END
> <Smiles>
Cc1cc(C#N)cc(C)c1Oc1nc(NC2CCC(NCc3ccc(Br)cc3)CC2)nc2ccsc12

> <IC50_uM>
0.946

> <pIC50>
6.024108864

> <Activity>
1

$$$$

  SciTegic10102310092D

 35 38  0  0  0  0            999 V2000
    3.1676   -7.5606    0.0000 C   0  0
    1.7006   -7.2475    0.0000 C   0  0
    0.6960   -8.3614    0.0000 C   0  0
   -0.7710   -8.0483    0.0000 C   0  0
   -1.7756   -9.1622    0.0000 C   0  0
   -1.2333   -6.6213    0.0000 C   0  0
   -0.2287   -5.5075    0.0000 C   0  0
   -0.6913   -4.0797    0.0000 S   0  0
   -2.1584   -3.7671    0.0000 O   0  0
   -1.6957   -5.1937    0.0000 O   0  0
    0.3114   -2.9665    0.0000 C   0  0
    1.8032   -3.1233    0.0000 C   0  0
    2.5551   -4.4192    0.0000 C   0  0
    1.8074   -5.7196    0.0000 O   0  0
    4.0559   -4.4171    0.0000 N   0  0
    4.8090   -5.7153    0.0000 C   0  0
    6.3098   -5.7131    0.0000 C   0  0
    7.0629   -7.0113    0.0000 O   0  0
    8.5638   -7.0091    0.0000 C   0  0
    9.3184   -8.3055    0.0000 C   0  0
   10.8184   -8.3003    0.0000 C   0  0
   11.5638   -6.9986    0.0000 C   0  0
   10.8093   -5.7022    0.0000 C   0  0
    9.3093   -5.7074    0.0000 C   0  0
    2.4133   -1.7530    0.0000 N   0  0
    1.2990   -0.7500    0.0000 C   0  0
    1.2990    0.7500    0.0000 C   0  0
    0.0000    1.5000    0.0000 C   0  0
   -1.2990    0.7500    0.0000 C   0  0
   -2.6003    1.4977    0.0000 N   0  3
   -3.8983    0.7459    0.0000 O   0  0
   -2.6030    2.9977    0.0000 O   0  5
   -1.2990   -0.7500    0.0000 C   0  0
    0.0000   -1.5000    0.0000 C   0  0
    1.2383   -5.8206    0.0000 C   0  0
  1  2  1  0
  2  3  2  0
  3  4  1  0
  4  5  1  0
  4  6  2  0
  6  7  1  0
  7  8  1  0
  8  9  2  0
  8 10  2  0
  8 11  1  0
 11 12  2  0
 12 13  1  0
 13 14  2  0
 13 15  1  0
 15 16  1  0
 16 17  1  0
 17 18  1  0
 18 19  1  0
 19 20  2  0
 20 21  1  0
 21 22  2  0
 22 23  1  0
 23 24  2  0
 24 19  1  0
 12 25  1  0
 25 26  1  0
 26 27  2  0
 27 28  1  0
 28 29  2  0
 29 30  1  0
 30 31  2  0
 30 32  1  0
 29 33  1  0
 33 34  2  0
 34 11  1  0
 34 26  1  0
  7 35  2  0
 35  2  1  0
M  CHG  2  30   1  32  -1
M  END
> <Smiles>
Cc1cc(C)cc(S(=O)(=O)c2c(C(=O)NCCOc3ccccc3)[nH]c3ccc([N+](=O)[O-])cc23)c1

> <IC50_uM>
0.95

> <pIC50>
6.022276395

> <Activity>
1

$$$$

  SciTegic10102310092D

 23 24  0  0  1  0            999 V2000
    3.9075   -3.7444    0.0000 C   0  0
    2.6060   -2.9986    0.0000 O   0  0
    2.6003   -1.4977    0.0000 C   0  0  2  0  0  0
    1.2990   -0.7500    0.0000 C   0  0
    1.2990    0.7500    0.0000 N   0  0
    0.0000    1.5000    0.0000 C   0  0
   -0.0031    3.0008    0.0000 S   0  0
   -1.3039    3.7494    0.0000 C   0  0
   -1.3070    5.2494    0.0000 C   0  0
   -2.6017    2.9971    0.0000 C   0  0
   -1.2990    0.7500    0.0000 N   0  0
   -1.2990   -0.7500    0.0000 C   0  0
   -2.5981   -1.5000    0.0000 O   0  0
    0.0000   -1.5000    0.0000 C   0  0
    0.0000   -3.0000    0.0000 C   0  0
    3.8990   -0.7455    0.0000 C   0  0
    5.2007   -1.4909    0.0000 C   0  0
    5.2060   -2.9909    0.0000 F   0  0
    6.4972   -0.7364    0.0000 C   0  0
    6.4920    0.7636    0.0000 C   0  0
    5.1903    1.5091    0.0000 C   0  0
    3.8939    0.7546    0.0000 C   0  0
    2.5923    1.5001    0.0000 Cl  0  0
  1  2  1  0
  3  2  1  6
  3  4  1  0
  4  5  1  0
  5  6  2  0
  6  7  1  0
  7  8  1  0
  8  9  1  0
  8 10  1  0
  6 11  1  0
 11 12  1  0
 12 13  2  0
 12 14  1  0
 14  4  2  0
 14 15  1  0
  3 16  1  0
 16 17  2  0
 17 18  1  0
 17 19  1  0
 19 20  2  0
 20 21  1  0
 21 22  2  0
 22 16  1  0
 22 23  1  0
M  END
> <Smiles>
CO[C@H](c1nc(SC(C)C)[nH]c(=O)c1C)c1c(F)cccc1Cl

> <IC50_uM>
0.95

> <pIC50>
6.022276395

> <Activity>
1

$$$$

  SciTegic10102310092D

 14 13  0  0  0  0            999 V2000
   10.3999    0.0000    0.0000 S   0  0
    9.0999    0.7500    0.0000 C   0  0
    7.7999    0.0000    0.0000 C   0  0
    6.5000    0.7500    0.0000 C   0  0
    5.2000    0.0000    0.0000 C   0  0
    3.9000    0.7500    0.0000 S   0  0
    2.6000    0.0000    0.0000 C   0  0
    1.3000    0.7500    0.0000 C   0  0
    1.3000    2.2500    0.0000 O   0  0
    0.0007    0.0004    0.0000 O   0  0
   11.6999    0.7500    0.0000 C   0  0
   12.9999    0.0000    0.0000 C   0  0
   12.9999   -1.5000    0.0000 O   0  0
   14.2992    0.7496    0.0000 O   0  0
  1  2  1  0
  2  3  1  0
  3  4  1  0
  4  5  1  0
  5  6  1  0
  6  7  1  0
  7  8  1  0
  8  9  1  0
  8 10  2  0
  1 11  1  0
 11 12  1  0
 12 13  1  0
 12 14  2  0
M  END
> <Smiles>
S(CCCCSCC(O)=O)CC(O)=O

> <IC50_uM>
0.954992586

> <pIC50>
6.02

> <Activity>
1

$$$$

  SciTegic10102310092D

 17 18  0  0  0  0            999 V2000
   -3.0055    2.5959    0.0000 C   0  0
   -2.2578    1.2945    0.0000 C   0  0  3  0  0  0
   -0.7526    1.2945    0.0000 C   0  0
    0.0000    0.0000    0.0000 C   0  0
   -0.7526   -1.2945    0.0000 C   0  0
   -2.2578   -1.2945    0.0000 C   0  0
   -3.0105    0.0000    0.0000 C   0  0
   -3.7631   -1.2945    0.0000 C   0  0
   -5.2683   -1.2945    0.0000 N   0  0
   -6.0209    0.0000    0.0000 C   0  0
   -7.5209    0.0000    0.0000 O   0  0
   -5.2683    1.2945    0.0000 N   0  0
   -3.7631    1.2945    0.0000 C   0  0
   -3.2644    2.1613    0.0000 O   0  0
   -3.0150   -2.5947    0.0000 O   0  0
   -2.2535    3.8938    0.0000 C   0  0
   -4.5055    2.5986    0.0000 C   0  0
  2  1  1  4
  2  3  1  0
  3  4  1  0
  4  5  2  0
  5  6  1  0
  6  7  1  0
  7  2  1  0
  7  8  1  0
  8  9  1  0
  9 10  1  0
 10 11  2  0
 10 12  1  0
 12 13  1  0
 13  7  1  0
 13 14  2  0
  8 15  2  0
  1 16  1  0
  1 17  1  0
M  END
> <Smiles>
C(C1CC=CCC12C(NC(=O)NC2=O)=O)(C)C

> <IC50_uM>
0.954992586

> <pIC50>
6.02

> <Activity>
1

$$$$

  SciTegic10102310092D

 13 14  0  0  0  0            999 V2000
    2.8382   -1.2159    0.0000 Cl  0  0
    1.9598    0.0000    0.0000 C   0  0  3  0  0  0
    1.3858    1.3858    0.0000 C   0  0
    0.0000    1.9598    0.0000 C   0  0
   -1.3858    1.3858    0.0000 C   0  0
   -1.9598    0.0000    0.0000 C   0  0
   -1.3858   -1.3858    0.0000 C   0  0
    0.0000   -1.9598    0.0000 C   0  0
    1.3858   -1.3858    0.0000 C   0  0
    2.5308    2.3537    0.0000 N   0  0
    3.8080    1.5671    0.0000 N   0  0
    3.4545    0.1094    0.0000 C   0  0
    4.4243   -1.0350    0.0000 O   0  0
  2  1  1  4
  2  3  1  0
  3  4  1  0
  4  5  1  0
  5  6  1  0
  6  7  1  0
  7  8  1  0
  8  9  1  0
  9  2  1  0
  3 10  2  0
 10 11  1  0
 11 12  1  0
 12  2  1  0
 12 13  2  0
M  END
> <Smiles>
ClC12C(CCCCCC1)=NNC2=O

> <IC50_uM>
0.954992586

> <pIC50>
6.02

> <Activity>
1

$$$$

  SciTegic10102310092D

 14 15  0  0  0  0            999 V2000
    0.3617   -4.2407    0.0000 C   0  0
    0.7488   -2.7970    0.0000 C   0  0  3  0  0  0
    2.0479   -2.0470    0.0000 C   0  0
    1.2990   -0.7500    0.0000 C   0  0
    1.2990    0.7500    0.0000 C   0  0
    0.0000    1.5000    0.0000 C   0  0
    0.0031    3.0008    0.0000 O   0  0
    1.3032    3.7490    0.0000 C   0  0
   -1.2990    0.7500    0.0000 C   0  0
   -2.6003    1.4977    0.0000 O   0  0
   -3.8983    0.7459    0.0000 C   0  0
   -1.2990   -0.7500    0.0000 C   0  0
    0.0000   -1.5000    0.0000 C   0  0
   -0.0268   -5.6896    0.0000 N   0  0
  2  1  1  4
  2  3  1  0
  3  4  1  0
  4  5  2  0
  5  6  1  0
  6  7  1  0
  7  8  1  0
  6  9  2  0
  9 10  1  0
 10 11  1  0
  9 12  1  0
  4 13  1  0
 13  2  1  0
 13 12  2  0
  1 14  3  0
M  END
> <Smiles>
C(C1Cc(cc(OC)c(OC)c2)c12)#N

> <IC50_uM>
0.954992586

> <pIC50>
6.02

> <Activity>
1

$$$$

  SciTegic10102310092D

  9  9  0  0  0  0            999 V2000
    2.5973   -1.5031    0.0000 S   0  3
    1.2990   -0.7500    0.0000 C   0  0
    1.2990    0.7500    0.0000 C   0  0
    0.0000    1.5000    0.0000 C   0  0
   -1.2990    0.7500    0.0000 C   0  0
   -1.2990   -0.7500    0.0000 C   0  0
    0.0000   -1.5000    0.0000 C   0  0
    2.5951   -3.0031    0.0000 C   0  0
    3.8976   -0.7553    0.0000 C   0  0
  1  2  1  0
  2  3  2  0
  3  4  1  0
  4  5  2  0
  5  6  1  0
  6  7  2  0
  7  2  1  0
  1  8  1  0
  1  9  1  0
M  CHG  1   1   1
M  END
> <Smiles>
[S+](c1ccccc1)(C)C

> <IC50_uM>
0.954992586

> <pIC50>
6.02

> <Activity>
1

$$$$

  SciTegic10102310092D

 12 13  0  0  0  0            999 V2000
   -0.6890   -4.0818    0.0000 C   0  0
    0.3114   -2.9665    0.0000 C   0  0
    1.8032   -3.1233    0.0000 C   0  0
    2.4133   -1.7530    0.0000 N   0  0
    3.8805   -1.4410    0.0000 C   0  0
    1.2990   -0.7500    0.0000 C   0  0
    1.2990    0.7500    0.0000 N   0  0
    0.0000    1.5000    0.0000 C   0  0
   -1.2990    0.7500    0.0000 C   0  0
   -1.2990   -0.7500    0.0000 N   0  0
    0.0000   -1.5000    0.0000 C   0  0
   -0.2237   -5.5078    0.0000 O   0  0
  1  2  1  0
  2  3  2  0
  3  4  1  0
  4  5  1  0
  4  6  1  0
  6  7  2  0
  7  8  1  0
  8  9  2  0
  9 10  1  0
  6 11  1  0
 11  2  1  0
 11 10  2  0
  1 12  2  0
M  END
> <Smiles>
C(c1cn(C)c(nccn2)c12)=O

> <IC50_uM>
0.954992586

> <pIC50>
6.02

> <Activity>
1

$$$$

  SciTegic10102310092D

 16 17  0  0  0  0            999 V2000
    2.5973   -1.5031    0.0000 O   0  0
    1.2990   -0.7500    0.0000 C   0  0
    1.2990    0.7500    0.0000 C   0  0
    0.0000    1.5000    0.0000 C   0  0
   -1.2990    0.7500    0.0000 C   0  0
   -1.2990   -0.7500    0.0000 C   0  0
    0.0000   -1.5000    0.0000 C   0  0
    2.5951   -3.0039    0.0000 P   0  0
    1.3334   -2.2311    0.0000 N   0  0
    0.0332   -2.9790    0.0000 C   0  0
    0.0308   -4.4790    0.0000 C   0  0
    1.3287   -5.2311    0.0000 C   0  0
    1.3263   -6.7311    0.0000 O   0  0
    2.6289   -4.4831    0.0000 N   0  0
   -1.2647   -2.2270    0.0000 O   0  0
    3.8929   -3.7562    0.0000 O   0  0
  1  2  1  0
  2  3  2  0
  3  4  1  0
  4  5  2  0
  5  6  1  0
  6  7  2  0
  7  2  1  0
  1  8  1  0
  8  9  1  0
  9 10  1  0
 10 11  1  0
 11 12  1  0
 12 13  2  0
 12 14  1  0
 14  8  1  0
 10 15  2  0
  8 16  2  0
M  END
> <Smiles>
O(c1ccccc1)P2(NC(CC(=O)N2)=O)=O

> <IC50_uM>
0.954992586

> <pIC50>
6.02

> <Activity>
1

$$$$

  SciTegic10102310092D

 12 11  0  0  0  0            999 V2000
    2.6000    0.0000    0.0000 C   0  0
    1.3000    0.7500    0.0000 S   0  0
    0.0007    0.0004    0.0000 O   0  0
    1.3000    2.2500    0.0000 O   0  0
    0.0011    1.5002    0.0000 C   0  0
    3.9000    0.7500    0.0000 S   0  0
    3.9000    2.2500    0.0000 O   0  0
    2.6011    1.5002    0.0000 O   0  0
    5.2000    0.0000    0.0000 O   0  0
    6.5000    0.7500    0.0000 C   0  0
    7.7999    0.0000    0.0000 C   0  0
    9.0992    0.7496    0.0000 Cl  0  0
  1  2  1  0
  2  3  2  0
  2  4  2  0
  2  5  1  0
  1  6  1  0
  6  7  2  0
  6  8  2  0
  6  9  1  0
  9 10  1  0
 10 11  1  0
 11 12  1  0
M  END
> <Smiles>
C(S(=O)(=O)C)S(=O)(=O)OCCCl

> <IC50_uM>
0.954992586

> <pIC50>
6.02

> <Activity>
1

$$$$

  SciTegic10102310092D

 14 14  0  0  0  0            999 V2000
    2.5973   -1.5031    0.0000 C   0  0  3  0  0  0
    1.2990   -0.7500    0.0000 C   0  0
    1.2990    0.7500    0.0000 C   0  0
    0.0000    1.5000    0.0000 C   0  0
   -1.2990    0.7500    0.0000 C   0  0
   -1.2990   -0.7500    0.0000 C   0  0
    0.0000   -1.5000    0.0000 C   0  0
    3.8999   -0.7576    0.0000 N   0  0
    5.1965   -1.5117    0.0000 C   0  0
    3.9051    0.7424    0.0000 C   0  0
    2.5951   -3.0039    0.0000 C   0  0
    1.2948   -3.7516    0.0000 C   0  0
    3.8933   -3.7570    0.0000 C   0  0
    5.1908   -4.5097    0.0000 C   0  0
  1  2  1  4
  2  3  2  0
  3  4  1  0
  4  5  2  0
  5  6  1  0
  6  7  2  0
  7  2  1  0
  1  8  1  0
  8  9  1  0
  8 10  1  0
  1 11  1  0
 11 12  1  0
 11 13  2  0
 13 14  2  0
M  END
> <Smiles>
C(c1ccccc1)(N(C)C)C(C)=C=C

> <IC50_uM>
0.954992586

> <pIC50>
6.02

> <Activity>
1

$$$$

  SciTegic10102310092D

 16 18  0  0  0  0            999 V2000
    2.5988   -1.5004    0.0000 S   0  0
    1.2990   -0.7500    0.0000 C   0  0
    1.2990    0.7500    0.0000 C   0  0
    0.0000    1.5000    0.0000 C   0  0
   -1.2990    0.7500    0.0000 C   0  0
   -1.2990   -0.7500    0.0000 C   0  0
    0.0000   -1.5000    0.0000 C   0  0
    3.8990   -0.7508    0.0000 C   0  0  3  0  0  0
    5.2499   -1.3728    0.0000 C   0  0  3  0  0  0
    6.2543   -0.2587    0.0000 C   0  0
    5.5052    1.0408    0.0000 C   0  0  3  0  0  0
    4.5036    2.1496    0.0000 O   0  0
    4.0377    0.7299    0.0000 C   0  0  3  0  0  0
    5.5521   -2.8420    0.0000 O   0  0
    2.5983   -3.0004    0.0000 O   0  0
    1.2996   -2.2502    0.0000 O   0  0
  1  2  1  0
  2  3  2  0
  3  4  1  0
  4  5  2  0
  5  6  1  0
  6  7  2  0
  7  2  1  0
  8  1  1  4
  8  9  1  0
  9 10  1  0
 11 10  1  4
 11 12  1  0
 11 13  1  0
 13  8  1  0
 13 12  1  4
  9 14  1  4
  1 15  2  0
  1 16  2  0
M  END
> <Smiles>
S(c1ccccc1)(C2C(CC(O3)C23)O)(=O)=O

> <IC50_uM>
0.954992586

> <pIC50>
6.02

> <Activity>
1

$$$$

  SciTegic10102310092D

 16 17  0  0  0  0            999 V2000
    1.8032   -3.1233    0.0000 C   0  0
    2.5532   -4.4223    0.0000 C   0  0
    2.4133   -1.7530    0.0000 C   0  0
    3.8805   -1.4410    0.0000 C   0  0
    1.2990   -0.7500    0.0000 N   0  3
    1.2990    0.7500    0.0000 N   0  0
    0.0000    1.5000    0.0000 C   0  0
   -0.0031    3.0008    0.0000 C   0  0
   -1.3039    3.7494    0.0000 O   0  0
   -1.3070    5.2494    0.0000 C   0  0
    1.2946    3.7531    0.0000 O   0  0
   -1.2990    0.7500    0.0000 C   0  0
   -1.2990   -0.7500    0.0000 C   0  0
   -2.5981   -1.5000    0.0000 O   0  5
    0.0000   -1.5000    0.0000 C   0  0
    0.3114   -2.9665    0.0000 S   0  0
  1  2  1  0
  1  3  2  0
  3  4  1  0
  3  5  1  0
  5  6  2  0
  6  7  1  0
  7  8  1  0
  8  9  1  0
  9 10  1  0
  8 11  2  0
  7 12  2  0
 12 13  1  0
 13 14  1  0
  5 15  1  0
 15 13  2  0
 15 16  1  0
 16  1  1  0
M  CHG  2   5   1  14  -1
M  END
> <Smiles>
c1(C)c(C)[n+](nc(C(OC)=O)cc2[O-])c2s1

> <IC50_uM>
0.954992586

> <pIC50>
6.02

> <Activity>
1

$$$$

  SciTegic10102310092D

 16 17  0  0  0  0            999 V2000
    1.2990   -0.7500    0.0000 C   0  0
    1.2990    0.7500    0.0000 C   0  0
    0.0000    1.5000    0.0000 C   0  0
   -1.2990    0.7500    0.0000 C   0  0
   -2.5987    1.5004    0.0000 N   0  0
   -2.6012    3.0004    0.0000 C   0  0
   -3.9015    3.7484    0.0000 C   0  0
   -5.1993    2.9963    0.0000 N   0  0
   -6.5018    3.7420    0.0000 C   0  0
   -7.7993    2.9876    0.0000 C   0  0
   -9.1010    3.7329    0.0000 Cl  0  0
   -6.5068    5.2419    0.0000 O   0  0
   -5.1969    1.4963    0.0000 C   0  0
   -3.8967    0.7484    0.0000 C   0  0
   -1.2990   -0.7500    0.0000 C   0  0
    0.0000   -1.5000    0.0000 C   0  0
  1  2  2  0
  2  3  1  0
  3  4  2  0
  4  5  1  0
  5  6  1  0
  6  7  1  0
  7  8  1  0
  8  9  1  0
  9 10  1  0
 10 11  1  0
  9 12  2  0
  8 13  1  0
 13 14  1  0
 14  5  1  0
  4 15  1  0
 15 16  2  0
 16  1  1  0
M  END
> <Smiles>
c1ccc(N2CCN(C(CCl)=O)CC2)cc1

> <IC50_uM>
0.954992586

> <pIC50>
6.02

> <Activity>
1

$$$$

  SciTegic10102310092D

 16 17  0  0  0  0            999 V2000
    1.2990   -0.7500    0.0000 C   0  0
    1.2990    0.7500    0.0000 C   0  0
    0.0000    1.5000    0.0000 N   0  0
   -1.2990    0.7500    0.0000 C   0  0
   -2.5987    1.5004    0.0000 N   0  0
   -2.6012    3.0004    0.0000 C   0  0
   -3.9015    3.7484    0.0000 C   0  0
   -5.1993    2.9963    0.0000 N   0  0
   -6.5018    3.7420    0.0000 C   0  0
   -7.7993    2.9876    0.0000 C   0  0
   -9.1010    3.7329    0.0000 Cl  0  0
   -6.5068    5.2419    0.0000 O   0  0
   -5.1969    1.4963    0.0000 C   0  0
   -3.8967    0.7484    0.0000 C   0  0
   -1.2990   -0.7500    0.0000 C   0  0
    0.0000   -1.5000    0.0000 C   0  0
  1  2  2  0
  2  3  1  0
  3  4  2  0
  4  5  1  0
  5  6  1  0
  6  7  1  0
  7  8  1  0
  8  9  1  0
  9 10  1  0
 10 11  1  0
  9 12  2  0
  8 13  1  0
 13 14  1  0
 14  5  1  0
  4 15  1  0
 15 16  2  0
 16  1  1  0
M  END
> <Smiles>
c1cnc(N2CCN(C(CCl)=O)CC2)cc1

> <IC50_uM>
0.954992586

> <pIC50>
6.02

> <Activity>
1

$$$$

  SciTegic10102310092D

 16 17  0  0  0  0            999 V2000
    1.2990   -0.7500    0.0000 C   0  0  3  0  0  0
    1.2990    0.7500    0.0000 C   0  0
    0.0000    1.5000    0.0000 O   0  0
   -1.2990    0.7500    0.0000 C   0  0
   -2.5800   -0.0305    0.0000 C   0  0
   -1.2638    2.2496    0.0000 C   0  0
   -1.2990   -0.7500    0.0000 P   0  0  3  0  0  0
   -1.2641   -2.2299    0.0000 C   0  0
   -2.5451   -3.0103    0.0000 C   0  0
   -2.5096   -4.5099    0.0000 C   0  0
   -1.1933   -5.2290    0.0000 C   0  0
    0.0877   -4.4486    0.0000 C   0  0
    0.0523   -2.9490    0.0000 C   0  0
   -2.5801    0.0303    0.0000 O   0  0
    0.0000   -1.5000    0.0000 C   0  0
    2.5981   -1.5000    0.0000 C   0  0
  1  2  1  0
  2  3  1  0
  3  4  1  0
  4  5  1  0
  4  6  1  0
  4  7  1  0
  7  8  1  4
  8  9  2  0
  9 10  1  0
 10 11  2  0
 11 12  1  0
 12 13  2  0
 13  8  1  0
  7 14  2  0
  7 15  1  0
 15  1  1  0
  1 16  1  4
M  END
> <Smiles>
C1(COC(C)(C)P(c2ccccc2)(=O)C1)C

> <IC50_uM>
0.954992586

> <pIC50>
6.02

> <Activity>
1

$$$$

  SciTegic10102310092D

 16 17  0  0  0  0            999 V2000
    1.2990   -0.7500    0.0000 C   0  0
    1.2990    0.7500    0.0000 C   0  0
    0.0000    1.5000    0.0000 C   0  0
   -0.0031    3.0008    0.0000 S   0  0
   -1.3039    3.7494    0.0000 C   0  0
   -1.4470    5.2297    0.0000 C   0  0
   -0.3315    6.2299    0.0000 N   0  3
    1.0940    5.7628    0.0000 O   0  5
   -0.6392    7.6980    0.0000 O   0  0
   -2.9153    5.5365    0.0000 N   0  0
   -3.6607    4.2349    0.0000 C   0  0
   -2.6532    3.1236    0.0000 N   0  0
   -2.9512    1.6535    0.0000 C   0  0
   -1.2990    0.7500    0.0000 N   0  0
   -1.2990   -0.7500    0.0000 C   0  0
    0.0000   -1.5000    0.0000 C   0  0
  1  2  2  0
  2  3  1  0
  3  4  1  0
  4  5  1  0
  5  6  2  0
  6  7  1  0
  7  8  1  0
  7  9  2  0
  6 10  1  0
 10 11  2  0
 11 12  1  0
 12  5  1  0
 12 13  1  0
  3 14  2  0
 14 15  1  0
 15 16  2  0
 16  1  1  0
M  CHG  2   7   1   8  -1
M  END
> <Smiles>
c1cc(Sc2c([N+]([O-])=O)ncn2C)ncc1

> <IC50_uM>
0.954992586

> <pIC50>
6.02

> <Activity>
1

$$$$

  SciTegic10102310092D

 16 17  0  0  0  0            999 V2000
    1.2990   -0.7500    0.0000 C   0  0
    1.2990    0.7500    0.0000 N   0  0
    0.0000    1.5000    0.0000 C   0  0
   -0.0031    3.0008    0.0000 S   0  0
   -1.3039    3.7494    0.0000 C   0  0
   -1.4470    5.2297    0.0000 C   0  0
   -0.3315    6.2299    0.0000 N   0  3
    1.0940    5.7628    0.0000 O   0  5
   -0.6392    7.6980    0.0000 O   0  0
   -2.9153    5.5365    0.0000 N   0  0
   -3.6607    4.2349    0.0000 C   0  0
   -2.6532    3.1236    0.0000 N   0  0
   -2.9512    1.6535    0.0000 C   0  0
   -1.2990    0.7500    0.0000 N   0  0
   -1.2990   -0.7500    0.0000 C   0  0
    0.0000   -1.5000    0.0000 C   0  0
  1  2  2  0
  2  3  1  0
  3  4  1  0
  4  5  1  0
  5  6  2  0
  6  7  1  0
  7  8  1  0
  7  9  2  0
  6 10  1  0
 10 11  2  0
 11 12  1  0
 12  5  1  0
 12 13  1  0
  3 14  2  0
 14 15  1  0
 15 16  2  0
 16  1  1  0
M  CHG  2   7   1   8  -1
M  END
> <Smiles>
c1nc(Sc2c([N+]([O-])=O)ncn2C)ncc1

> <IC50_uM>
0.954992586

> <pIC50>
6.02

> <Activity>
1

$$$$

  SciTegic10102310092D

 16 17  0  0  0  0            999 V2000
    0.7500   -1.0323    0.0000 N   0  0
    1.2135    0.3943    0.0000 C   0  0
    2.6394    0.8543    0.0000 S   0  0
    3.7533   -0.1515    0.0000 C   0  0
    5.2054    0.1699    0.0000 C   0  0
    5.8119    1.5398    0.0000 N   0  3
    4.9272    2.7512    0.0000 O   0  5
    7.3032    1.7008    0.0000 O   0  0
    5.9509   -1.1317    0.0000 N   0  0
    4.9433   -2.2430    0.0000 C   0  0
    3.5751   -1.6281    0.0000 N   0  0
    2.2690   -2.3658    0.0000 C   0  0
    0.0000    1.2760    0.0000 N   0  0
    0.0000    2.7760    0.0000 C   0  0
   -1.2135    0.3943    0.0000 C   0  0
   -0.7500   -1.0323    0.0000 C   0  0
  1  2  2  0
  2  3  1  0
  3  4  1  0
  4  5  2  0
  5  6  1  0
  6  7  1  0
  6  8  2  0
  5  9  1  0
  9 10  2  0
 10 11  1  0
 11  4  1  0
 11 12  1  0
  2 13  1  0
 13 14  1  0
 13 15  1  0
 15 16  2  0
 16  1  1  0
M  CHG  2   6   1   7  -1
M  END
> <Smiles>
n1c(Sc2c([N+]([O-])=O)ncn2C)n(C)cc1

> <IC50_uM>
0.954992586

> <pIC50>
6.02

> <Activity>
1

$$$$

  SciTegic10102310092D

 16 17  0  0  0  0            999 V2000
    0.7500   -1.0323    0.0000 N   0  0
    1.2135    0.3943    0.0000 C   0  0
    2.6394    0.8543    0.0000 S   0  0
    3.7533   -0.1515    0.0000 C   0  0
    5.2054    0.1699    0.0000 C   0  0
    5.8119    1.5398    0.0000 N   0  3
    4.9272    2.7512    0.0000 O   0  5
    7.3032    1.7008    0.0000 O   0  0
    5.9509   -1.1317    0.0000 N   0  0
    4.9433   -2.2430    0.0000 C   0  0
    3.5751   -1.6281    0.0000 N   0  0
    2.2690   -2.3658    0.0000 C   0  0
    0.0000    1.2760    0.0000 N   0  0
    0.0000    2.7760    0.0000 C   0  0
   -1.2135    0.3943    0.0000 C   0  0
   -0.7500   -1.0323    0.0000 N   0  0
  1  2  2  0
  2  3  1  0
  3  4  1  0
  4  5  2  0
  5  6  1  0
  6  7  1  0
  6  8  2  0
  5  9  1  0
  9 10  2  0
 10 11  1  0
 11  4  1  0
 11 12  1  0
  2 13  1  0
 13 14  1  0
 13 15  1  0
 15 16  2  0
 16  1  1  0
M  CHG  2   6   1   7  -1
M  END
> <Smiles>
n1c(Sc2c([N+]([O-])=O)ncn2C)n(C)cn1

> <IC50_uM>
0.954992586

> <pIC50>
6.02

> <Activity>
1

$$$$

  SciTegic10102310092D

 18 20  0  0  0  0            999 V2000
    1.2990   -0.7500    0.0000 C   0  0
    1.2990    0.7500    0.0000 C   0  0
    0.0000    1.5000    0.0000 C   0  0
    0.0000    3.0000    0.0000 N   0  3
    1.2990    3.7500    0.0000 O   0  0
   -1.2991    3.7500    0.0000 C   0  5
   -1.2991    5.2507    0.0000 C   0  0
   -0.0012    6.0029    0.0000 C   0  0
   -0.0036    7.5029    0.0000 C   0  0
   -1.3039    8.2509    0.0000 C   0  0
   -2.6017    7.4988    0.0000 C   0  0
   -2.5993    5.9988    0.0000 C   0  0
   -2.5981    3.0000    0.0000 C   0  0
   -3.8971    3.7500    0.0000 O   0  0
   -2.5981    1.5000    0.0000 O   0  0
   -1.2990    0.7500    0.0000 C   0  0
   -1.2990   -0.7500    0.0000 C   0  0
    0.0000   -1.5000    0.0000 C   0  0
  1  2  2  0
  2  3  1  0
  3  4  1  0
  4  5  2  0
  4  6  1  0
  6  7  1  0
  7  8  2  0
  8  9  1  0
  9 10  2  0
 10 11  1  0
 11 12  2  0
 12  7  1  0
  6 13  1  0
 13 14  2  0
 13 15  1  0
  3 16  2  0
 16 15  1  0
 16 17  1  0
 17 18  2  0
 18  1  1  0
M  CHG  2   4   1   6  -1
M  END
> <Smiles>
c1cc([N+](=O)[C-](c2ccccc2)C(=O)O3)c3cc1

> <IC50_uM>
0.954992586

> <pIC50>
6.02

> <Activity>
1

$$$$

  SciTegic10102310092D

 18 19  0  0  0  0            999 V2000
    3.8933   -3.7570    0.0000 C   0  0
    2.5951   -3.0039    0.0000 C   0  0
    2.5973   -1.5031    0.0000 C   0  0
    1.2990   -0.7500    0.0000 C   0  0
    1.2990    0.7500    0.0000 C   0  0
    0.0000    1.5000    0.0000 C   0  0
   -1.2990    0.7500    0.0000 C   0  0
   -1.2990   -0.7500    0.0000 C   0  0
    0.0000   -1.5000    0.0000 N   0  0
    5.1925   -3.0070    0.0000 C   0  0
    6.4915   -3.7571    0.0000 C   0  0
    6.4915   -5.2571    0.0000 C   0  0
    5.1924   -6.0070    0.0000 C   0  0
    3.8934   -5.2570    0.0000 C   0  0
    2.5952   -6.0101    0.0000 N   0  0
    2.5973   -7.5109    0.0000 C   0  0
    3.8977   -8.2587    0.0000 C   0  0
    1.2998   -8.2636    0.0000 O   0  0
  1  2  1  0
  2  3  2  0
  3  4  1  0
  4  5  2  0
  5  6  1  0
  6  7  2  0
  7  8  1  0
  8  9  2  0
  9  4  1  0
  1 10  2  0
 10 11  1  0
 11 12  2  0
 12 13  1  0
 13 14  2  0
 14  1  1  0
 14 15  1  0
 15 16  1  0
 16 17  1  0
 16 18  2  0
M  END
> <Smiles>
c1(\C=C\c2ccccn2)ccccc1NC(C)=O

> <IC50_uM>
0.954992586

> <pIC50>
6.02

> <Activity>
1

$$$$

  SciTegic10102310092D

 18 20  0  0  0  0            999 V2000
    1.2990   -0.7500    0.0000 C   0  0
    1.2990    0.7500    0.0000 C   0  0
    2.7248    1.2135    0.0000 N   0  0
    3.6065    0.0000    0.0000 C   0  0
    4.6065    0.0000    0.0000 O   0  0
    2.7248   -1.2135    0.0000 C   0  0  3  0  0  0
    4.1845   -1.4996    0.0000 C   0  0
    4.6942   -2.9112    0.0000 C   0  0
    6.1664   -3.1945    0.0000 N   0  0
    6.6573   -4.6119    0.0000 C   0  0
    5.6753   -5.7458    0.0000 C   0  0
    4.2023   -5.4622    0.0000 C   0  0
    3.7114   -4.0448    0.0000 C   0  0
    1.7035   -2.3121    0.0000 O   0  0
    0.0000    1.5000    0.0000 C   0  0
   -1.2990    0.7500    0.0000 C   0  0
   -1.2990   -0.7500    0.0000 C   0  0
    0.0000   -1.5000    0.0000 C   0  0
  1  2  2  0
  2  3  1  0
  3  4  1  0
  4  5  2  0
  4  6  1  0
  6  1  1  0
  6  7  1  0
  7  8  1  0
  8  9  2  0
  9 10  1  0
 10 11  2  0
 11 12  1  0
 12 13  2  0
 13  8  1  0
  6 14  1  4
  2 15  1  0
 15 16  2  0
 16 17  1  0
 17 18  2  0
 18  1  1  0
M  END
> <Smiles>
c12c(NC(=O)C1(Cc3ncccc3)O)cccc2

> <IC50_uM>
0.954992586

> <pIC50>
6.02

> <Activity>
1

$$$$

  SciTegic10102310092D

 17 18  0  0  0  0            999 V2000
    2.3807    1.7807    0.0000 C   0  0
    3.8600    2.0286    0.0000 C   0  0
    0.5032    2.4968    0.0000 N   0  0
   -0.4258    2.3419    0.0000 C   0  0
   -1.6165    1.4296    0.0000 C   0  0
   -0.6524    3.8247    0.0000 C   0  0
    0.2516    1.4323    0.0000 C   0  0  3  0  0  0
    1.8581    0.5226    0.0000 C   0  0
    3.1742    1.4903    0.0000 C   0  0  3  0  0  0
    3.4452    3.3484    0.0000 C   0  0  3  0  0  0
    2.2839    3.9871    0.0000 C   0  0
    0.8323    2.8839    0.0000 C   0  0
    4.6804    2.4974    0.0000 C   0  0
    3.5109    4.8330    0.0000 N   0  0
    2.2606    5.6630    0.0000 C   0  0
    2.3532    7.1602    0.0000 O   0  0
    0.9175    4.9951    0.0000 C   0  0
  1  2  1  0
  1  3  2  0
  3  4  1  0
  4  5  1  0
  4  6  1  0
  4  7  1  0
  7  8  1  4
  9  8  1  4
  9  1  1  0
  9 10  1  0
 10 11  1  0
 11 12  1  0
 12  7  1  0
 10 13  1  4
 10 14  1  0
 14 15  1  0
 15 16  2  0
 15 17  1  0
M  END
> <Smiles>
C1(C)=NC(C)(C)C2CC1C(CC2)(C)NC(=O)C

> <IC50_uM>
0.954992586

> <pIC50>
6.02

> <Activity>
1

$$$$

  SciTegic10102310092D

 18 20  0  0  0  0            999 V2000
    1.2990   -0.7500    0.0000 C   0  0
    1.2990    0.7500    0.0000 C   0  0
    0.0000    1.5000    0.0000 N   0  0
   -1.2990    0.7500    0.0000 C   0  0
   -2.5981    1.5000    0.0000 C   0  0
   -1.2990   -0.7500    0.0000 N   0  0
    0.0000   -1.5000    0.0000 C   0  0
    0.0000   -3.0000    0.0000 O   0  0
   -2.5987   -1.5004    0.0000 C   0  0
   -3.8991   -0.7525    0.0000 C   0  0
   -5.1969   -1.5046    0.0000 C   0  0
   -5.1945   -3.0046    0.0000 C   0  0
   -3.8943   -3.7525    0.0000 C   0  0
   -2.5964   -3.0004    0.0000 C   0  0
    2.5981    1.5000    0.0000 C   0  0
    3.8971    0.7500    0.0000 C   0  0
    3.8971   -0.7500    0.0000 C   0  0
    2.5981   -1.5000    0.0000 C   0  0
  1  2  2  0
  2  3  1  0
  3  4  2  0
  4  5  1  0
  4  6  1  0
  6  7  1  0
  7  1  1  0
  7  8  2  0
  6  9  1  0
  9 10  2  0
 10 11  1  0
 11 12  2  0
 12 13  1  0
 13 14  2  0
 14  9  1  0
  2 15  1  0
 15 16  2  0
 16 17  1  0
 17 18  2  0
 18  1  1  0
M  END
> <Smiles>
c12c(N=C(C)N(C1=O)c3ccccc3)cccc2

> <IC50_uM>
0.954992586

> <pIC50>
6.02

> <Activity>
1

$$$$

  SciTegic10102310092D

 17 17  0  0  0  0            999 V2000
    0.7500   -1.0323    0.0000 N   0  0
    1.2135    0.3943    0.0000 C   0  0  3  0  0  0
    0.0000    1.2760    0.0000 C   0  0
   -1.2135    0.3943    0.0000 C   0  0
   -1.4995    1.8540    0.0000 C   0  0
   -0.7566    2.5235    0.0000 C   0  0
   -2.3033   -0.6187    0.0000 C   0  0
   -3.7302   -0.1562    0.0000 C   0  0
   -0.7500   -1.0323    0.0000 C   0  0
   -1.6317   -2.2458    0.0000 O   0  0
   -0.0031    2.7742    0.0000 N   0  0
    1.2939    3.5278    0.0000 O   0  0
    2.3029   -0.6186    0.0000 C   0  0
    2.0954   -1.5968    0.0000 C   0  0
    1.4997    1.8544    0.0000 C   0  0
    2.9260    2.3189    0.0000 C   0  0
    1.3378   -1.8413    0.0000 O   0  0
  1  2  1  0
  2  3  1  0
  3  4  1  0
  4  5  1  0
  5  6  1  0
  4  7  1  0
  7  8  1  0
  4  9  1  0
  9  1  1  0
  9 10  2  0
  3 11  2  0
 11 12  1  0
  2 13  1  4
 13 14  2  0
  2 15  1  0
 15 16  1  0
  1 17  1  0
M  END
> <Smiles>
N1(C(\C(\C(CC)(CC)C1=O)=N/O)(C=C)CC)O

> <IC50_uM>
0.954992586

> <pIC50>
6.02

> <Activity>
1

$$$$

  SciTegic10102310092D

 17 18  0  0  0  0            999 V2000
    1.2990   -0.7500    0.0000 C   0  0
    1.2990    0.7500    0.0000 C   0  0
    0.0000    1.5000    0.0000 C   0  0
    0.0000    3.0000    0.0000 O   0  0
   -1.2990    0.7500    0.0000 C   0  0  3  0  0  0
   -2.5987    1.5004    0.0000 N   0  0
   -2.6012    3.0004    0.0000 C   0  0
   -1.3034    3.7525    0.0000 O   0  0
   -3.9015    3.7484    0.0000 N   0  0
   -3.8967    0.7484    0.0000 C   0  0
   -5.1969    1.4963    0.0000 C   0  0
   -6.4947    0.7442    0.0000 F   0  0
   -5.1993    2.9963    0.0000 C   0  0
   -6.4995    3.7442    0.0000 O   0  0
   -1.2990   -0.7500    0.0000 O   0  0
    0.0000   -1.5000    0.0000 C   0  0  3  0  0  0
    0.0000   -3.0000    0.0000 C   0  0
  1  2  2  0
  2  3  1  0
  3  4  2  0
  3  5  1  0
  5  6  1  4
  6  7  1  0
  7  8  2  0
  7  9  1  0
  6 10  1  0
 10 11  2  0
 11 12  1  0
 11 13  1  0
 13  9  1  0
 13 14  2  0
  5 15  1  0
 15 16  1  0
 16  1  1  0
 16 17  1  4
M  END
> <Smiles>
C1=CC(=O)C(N(C(=O)N2)C=C(F)C2=O)OC1C

> <IC50_uM>
0.954992586

> <pIC50>
6.02

> <Activity>
1

$$$$

  SciTegic10102310092D

 11 12  0  0  0  0            999 V2000
    0.7500   -1.0323    0.0000 C   0  0
    1.2135    0.3943    0.0000 N   0  3  3  0  0  0
    2.4150   -0.4963    0.0000 C   0  0
    2.2451   -1.9875    0.0000 C   0  0
    3.4502   -2.8806    0.0000 O   0  0
    2.4422    1.2371    0.0000 C   0  0
    1.9926    2.6682    0.0000 C   0  0
    0.4927    2.6828    0.0000 C   0  0
    0.0000    1.2760    0.0000 N   0  0  3  0  0  0
   -1.2135    0.3943    0.0000 C   0  0
   -0.7500   -1.0323    0.0000 C   0  0
  1  2  1  0
  2  3  1  4
  3  4  1  0
  4  5  1  0
  2  6  1  0
  6  7  1  0
  7  8  1  0
  2  9  1  0
  9  8  1  4
  9 10  1  0
 10 11  1  0
 11  1  1  0
M  CHG  1   2   1
M  END
> <Smiles>
C1[N+](CCO)(CCC2)N2CC1

> <IC50_uM>
0.954992586

> <pIC50>
6.02

> <Activity>
1

$$$$

  SciTegic10102310092D

 16 17  0  0  0  0            999 V2000
    1.2990   -0.7500    0.0000 C   0  0
    1.2990    0.7500    0.0000 C   0  0
    2.5987    1.5004    0.0000 C   0  0
    3.9511    0.8815    0.0000 N   0  0
    4.9530    1.9978    0.0000 C   0  0
    4.2010    3.2957    0.0000 N   0  0
    2.7342    2.9815    0.0000 N   0  0
    6.4451    1.8434    0.0000 S   0  0
    0.0000    1.5000    0.0000 C   0  0
   -1.2990    0.7500    0.0000 C   0  0
   -2.5973    1.5031    0.0000 N   0  3
   -3.8976    0.7553    0.0000 O   0  5
   -2.5951    3.0031    0.0000 O   0  0
   -1.2990   -0.7500    0.0000 C   0  0
   -2.5981   -1.5000    0.0000 O   0  0
    0.0000   -1.5000    0.0000 C   0  0
  1  2  2  0
  2  3  1  0
  3  4  2  0
  4  5  1  0
  5  6  1  0
  6  7  1  0
  7  3  1  0
  5  8  2  0
  2  9  1  0
  9 10  2  0
 10 11  1  0
 11 12  1  0
 11 13  2  0
 10 14  1  0
 14 15  1  0
 14 16  2  0
 16  1  1  0
M  CHG  2  11   1  12  -1
M  END
> <Smiles>
c1c(C2=NC(NN2)=S)cc([N+]([O-])=O)c(O)c1

> <IC50_uM>
0.954992586

> <pIC50>
6.02

> <Activity>
1

$$$$

  SciTegic10102310092D

 12 13  0  0  0  0            999 V2000
    0.7500   -1.0323    0.0000 N   0  0
    1.2135    0.3943    0.0000 C   0  0  3  0  0  0
    0.0000    1.2760    0.0000 O   0  0
   -1.2135    0.3943    0.0000 C   0  0
   -0.7500   -1.0323    0.0000 C   0  0  3  0  0  0
   -1.6332   -2.2426    0.0000 C   0  0
   -3.1247   -2.0836    0.0000 C   0  0
   -1.0255   -3.6140    0.0000 C   0  0
    2.7115    0.3950    0.0000 C   0  0
    3.1750   -1.0316    0.0000 C   0  0
    1.9615   -1.9133    0.0000 C   0  0
    1.9612   -3.4133    0.0000 O   0  0
  1  2  1  0
  2  3  1  4
  3  4  1  0
  4  5  1  0
  5  1  1  0
  5  6  1  4
  6  7  1  0
  6  8  1  0
  2  9  1  0
  9 10  1  0
 10 11  1  0
 11  1  1  0
 11 12  2  0
M  END
> <Smiles>
N12C(OCC1C(C)C)CCC2=O

> <IC50_uM>
0.954992586

> <pIC50>
6.02

> <Activity>
1

$$$$

  SciTegic10102310092D

 17 18  0  0  0  0            999 V2000
    1.2990   -0.7500    0.0000 C   0  0
    2.5973   -1.5031    0.0000 C   0  0
    3.8976   -0.7553    0.0000 N   0  0
    2.5951   -3.0031    0.0000 N   0  0
    1.2990    0.7500    0.0000 C   0  0
    2.5981    1.5000    0.0000 O   0  0
    0.0000    1.5000    0.0000 N   0  0
   -1.2990    0.7500    0.0000 C   0  0
   -2.5981    1.5000    0.0000 O   0  0
   -1.2990   -0.7500    0.0000 N   0  0
   -2.5987   -1.5004    0.0000 C   0  0
   -3.8991   -0.7525    0.0000 C   0  0
   -5.1969   -1.5046    0.0000 C   0  0
   -5.1945   -3.0046    0.0000 C   0  0
   -3.8943   -3.7525    0.0000 C   0  0
   -2.5964   -3.0004    0.0000 C   0  0
    0.0000   -1.5000    0.0000 C   0  0
  1  2  1  0
  2  3  1  0
  2  4  2  0
  1  5  2  0
  5  6  1  0
  5  7  1  0
  7  8  1  0
  8  9  2  0
  8 10  1  0
 10 11  1  0
 11 12  1  0
 12 13  1  0
 13 14  1  0
 14 15  1  0
 15 16  1  0
 16 11  1  0
 10 17  1  0
 17  1  1  0
M  END
> <Smiles>
C1(C(N)=N)=C(O)NC(=O)N(C2CCCCC2)C1

> <IC50_uM>
0.954992586

> <pIC50>
6.02

> <Activity>
1

$$$$

  SciTegic10102310092D

 17 18  0  0  0  0            999 V2000
    1.2990   -0.7500    0.0000 C   0  0  3  0  0  0
    2.5981   -1.5000    0.0000 C   0  0
    1.2990    0.7500    0.0000 C   0  0
    2.5981    1.5000    0.0000 O   0  0
    0.0000    1.5000    0.0000 C   0  0
   -1.2990    0.7500    0.0000 C   0  0
   -1.2990   -0.7500    0.0000 C   0  0  3  0  0  0
   -2.5987   -1.5004    0.0000 N   0  0
   -2.5964   -3.0004    0.0000 C   0  0
   -3.8943   -3.7525    0.0000 C   0  0
   -3.8919   -5.2525    0.0000 F   0  0
   -5.1945   -3.0046    0.0000 C   0  0
   -6.4924   -3.7566    0.0000 O   0  0
   -5.1969   -1.5046    0.0000 N   0  0
   -3.8990   -0.7525    0.0000 C   0  0
   -3.9015    0.7475    0.0000 O   0  0
    0.0000   -1.5000    0.0000 O   0  0
  1  2  1  4
  1  3  1  0
  3  4  2  0
  3  5  1  0
  5  6  2  0
  6  7  1  0
  7  8  1  4
  8  9  1  0
  9 10  2  0
 10 11  1  0
 10 12  1  0
 12 13  2  0
 12 14  1  0
 14 15  1  0
 15  8  1  0
 15 16  2  0
  7 17  1  0
 17  1  1  0
M  END
> <Smiles>
C1(C)C(=O)C=CC(N2C=C(F)C(=O)NC2=O)O1

> <IC50_uM>
0.954992586

> <pIC50>
6.02

> <Activity>
1

$$$$

  SciTegic10102310092D

 17 18  0  0  0  0            999 V2000
    2.5951   -3.0039    0.0000 C   0  0
    2.5973   -1.5031    0.0000 N   0  0
    1.2990   -0.7500    0.0000 C   0  0  3  0  0  0
    1.2990    0.7500    0.0000 O   0  0
    0.0000    1.5000    0.0000 C   0  0
   -1.2990    0.7500    0.0000 C   0  0
   -1.2990   -0.7500    0.0000 C   0  0
    0.0000   -1.5000    0.0000 C   0  0
    3.8915   -3.7585    0.0000 N   0  0
    3.8864   -5.2585    0.0000 C   0  0
    2.5847   -6.0040    0.0000 N   0  0
    2.5765   -7.5048    0.0000 C   0  0
    1.2731   -8.2489    0.0000 C   0  0
    1.2648   -9.7488    0.0000 O   0  0
    1.2883   -5.2495    0.0000 C   0  0
    1.2935   -3.7495    0.0000 C   0  0
    5.1828   -6.0130    0.0000 O   0  0
  1  2  1  0
  3  2  1  4
  3  4  1  0
  4  5  1  0
  5  6  1  0
  6  7  1  0
  7  8  1  0
  8  3  1  0
  1  9  2  0
  9 10  1  0
 10 11  1  0
 11 12  1  0
 12 13  1  0
 13 14  1  0
 11 15  1  0
 15 16  2  0
 16  1  1  0
 10 17  2  0
M  END
> <Smiles>
C1(NC2OCCCC2)=NC(N(CCO)C=C1)=O

> <IC50_uM>
0.954992586

> <pIC50>
6.02

> <Activity>
1

$$$$

  SciTegic10102310092D

 14 15  0  0  0  0            999 V2000
    1.0000    1.0000    0.0000 P   0  0
    0.2929    1.7071    0.0000 Cl  0  0
    0.0000    1.0000    0.0000 N   0  0
    0.0000    0.0000    0.0000 C   0  0
   -0.7071   -0.7071    0.0000 O   0  0
    1.0000    0.0000    0.0000 N   0  0
    1.7071   -0.7071    0.0000 C   0  0
   -0.7071    1.7071    0.0000 C   0  0
    1.0000    2.0000    0.0000 N   0  0
    0.2929    2.7071    0.0000 C   0  0
    2.0000    2.0000    0.0000 C   0  0
    2.7071    2.7071    0.0000 O   0  0
    2.0000    1.0000    0.0000 N   0  0
    2.7071    0.2929    0.0000 C   0  0
  1  2  1  0
  1  3  1  0
  3  4  1  0
  4  5  2  0
  4  6  1  0
  6  1  1  0
  6  7  1  0
  3  8  1  0
  1  9  1  0
  9 10  1  0
  9 11  1  0
 11 12  2  0
 11 13  1  0
 13  1  1  0
 13 14  1  0
M  END
> <Smiles>
P12(Cl)(N(C(=O)N1C)C)N(C)C(=O)N2C

> <IC50_uM>
0.954992586

> <pIC50>
6.02

> <Activity>
1

$$$$

  SciTegic10102310092D

 17 18  0  0  0  0            999 V2000
    2.4133   -1.7530    0.0000 N   0  0
    1.2990   -0.7500    0.0000 C   0  0
    1.2990    0.7500    0.0000 N   0  0
    2.5972    1.5031    0.0000 C   0  0
    2.5951    3.0039    0.0000 C   0  0
    3.8933    3.7570    0.0000 O   0  0
    3.8912    5.2578    0.0000 C   0  0
    5.1886    6.0105    0.0000 C   0  0
    1.2948    3.7517    0.0000 O   0  0
    0.0000    1.5000    0.0000 C   0  0
    0.0000    3.0000    0.0000 O   0  0
   -1.2990    0.7500    0.0000 N   0  0
   -1.2990   -0.7500    0.0000 C   0  0
   -2.5981   -1.5000    0.0000 O   0  0
    0.0000   -1.5000    0.0000 C   0  0
    0.3114   -2.9665    0.0000 N   0  0
    1.8032   -3.1233    0.0000 C   0  0
  1  2  1  0
  2  3  1  0
  3  4  1  0
  4  5  1  0
  5  6  1  0
  6  7  1  0
  7  8  1  0
  5  9  2  0
  3 10  1  0
 10 11  2  0
 10 12  1  0
 12 13  1  0
 13 14  2  0
  2 15  2  0
 15 13  1  0
 15 16  1  0
 16 17  1  0
 17  1  2  0
M  END
> <Smiles>
n1c(N(CC(OCC)=O)C(=O)NC2=O)c2[nH]c1

> <IC50_uM>
0.954992586

> <pIC50>
6.02

> <Activity>
1

$$$$

  SciTegic10102310092D

 17 17  0  0  0  0            999 V2000
    1.2990   -0.7500    0.0000 C   0  0
    1.2990    0.7500    0.0000 C   0  0
    2.5972    1.5031    0.0000 N   0  3
    3.8976    0.7554    0.0000 O   0  5
    2.5951    3.0031    0.0000 O   0  0
    0.0000    1.5000    0.0000 C   0  0
   -1.2990    0.7500    0.0000 C   0  0
   -1.2990   -0.7500    0.0000 C   0  0
   -2.5972   -1.5031    0.0000 C   0  0
   -2.5951   -3.0039    0.0000 C   0  0
   -3.8933   -3.7570    0.0000 C   0  0
   -5.1937   -3.0093    0.0000 O   0  0
   -3.8912   -5.2570    0.0000 O   0  0
   -1.2925   -3.7494    0.0000 C   0  0
   -1.2873   -5.2494    0.0000 O   0  0
    0.0042   -2.9953    0.0000 O   0  0
    0.0000   -1.5000    0.0000 C   0  0
  1  2  2  0
  2  3  1  0
  3  4  1  0
  3  5  2  0
  2  6  1  0
  6  7  2  0
  7  8  1  0
  8  9  1  0
  9 10  2  0
 10 11  1  0
 11 12  1  0
 11 13  2  0
 10 14  1  0
 14 15  1  0
 14 16  2  0
  8 17  2  0
 17  1  1  0
M  CHG  2   3   1   4  -1
M  END
> <Smiles>
c1c([N+]([O-])=O)ccc(C=C(C(O)=O)C(O)=O)c1

> <IC50_uM>
0.954992586

> <pIC50>
6.02

> <Activity>
1

$$$$

  SciTegic10102310092D

 14 13  0  0  0  0            999 V2000
    0.0007    0.0004    0.0000 C   0  0
    1.3000    0.7500    0.0000 O   0  0
    2.6000    0.0000    0.0000 C   0  0
    3.9000    0.7500    0.0000 C   0  0
    5.2000    0.0000    0.0000 C   0  0
    6.5000    0.7500    0.0000 S   0  0
    7.7999    0.0000    0.0000 S   0  0
    9.0999    0.7500    0.0000 C   0  0
   10.3999    0.0000    0.0000 C   0  0
   11.6999    0.7500    0.0000 C   0  0
   12.9999    0.0000    0.0000 O   0  0
   14.2992    0.7496    0.0000 C   0  0
   11.6999    2.2500    0.0000 O   0  0
    2.6000   -1.5000    0.0000 O   0  0
  1  2  1  0
  2  3  1  0
  3  4  1  0
  4  5  1  0
  5  6  1  0
  6  7  1  0
  7  8  1  0
  8  9  1  0
  9 10  1  0
 10 11  1  0
 11 12  1  0
 10 13  2  0
  3 14  2  0
M  END
> <Smiles>
COC(CCSSCCC(OC)=O)=O

> <IC50_uM>
0.954992586

> <pIC50>
6.02

> <Activity>
1

$$$$

  SciTegic10102310092D

 17 18  0  0  0  0            999 V2000
    1.2990   -0.7500    0.0000 C   0  0
    1.2990    0.7500    0.0000 C   0  0
    0.0000    1.5000    0.0000 C   0  0
   -1.2990    0.7500    0.0000 C   0  0  3  0  0  0
   -2.5987    1.5004    0.0000 N   0  0
   -3.8967    0.7484    0.0000 C   0  0
   -5.1969    1.4963    0.0000 C   0  0
   -6.4948    0.7442    0.0000 C   0  0
   -5.1993    2.9963    0.0000 C   0  0
   -6.4995    3.7442    0.0000 O   0  0
   -3.9014    3.7484    0.0000 N   0  0
   -2.6012    3.0004    0.0000 C   0  0
   -1.3034    3.7525    0.0000 O   0  0
   -1.2990   -0.7500    0.0000 O   0  0
    0.0000   -1.5000    0.0000 C   0  0  3  0  0  0
    0.0000   -3.0000    0.0000 C   0  0
    2.5981   -1.5000    0.0000 O   0  0
  1  2  1  0
  2  3  2  0
  3  4  1  0
  4  5  1  4
  5  6  1  0
  6  7  2  0
  7  8  1  0
  7  9  1  0
  9 10  2  0
  9 11  1  0
 11 12  1  0
 12  5  1  0
 12 13  2  0
  4 14  1  0
 14 15  1  0
 15  1  1  0
 15 16  1  4
  1 17  2  0
M  END
> <Smiles>
C1(C=CC(N2C=C(C)C(=O)NC2=O)OC1C)=O

> <IC50_uM>
0.954992586

> <pIC50>
6.02

> <Activity>
1

$$$$

  SciTegic10102310092D

 12 12  0  0  0  0            999 V2000
    1.6317   -2.2458    0.0000 O   0  0
    0.7500   -1.0323    0.0000 C   0  0
    1.2135    0.3943    0.0000 C   0  0
    2.6401    0.8578    0.0000 Br  0  0
    0.0000    1.2760    0.0000 C   0  0
    0.0000    2.7760    0.0000 O   0  0
   -1.2135    0.3943    0.0000 O   0  0
   -0.7500   -1.0323    0.0000 C   0  0  3  0  0  0
   -1.6332   -2.2426    0.0000 C   0  0
   -3.1255   -2.0835    0.0000 C   0  0
   -3.7332   -0.7122    0.0000 O   0  0
   -4.0097   -3.2952    0.0000 O   0  0
  1  2  1  0
  2  3  2  0
  3  4  1  0
  3  5  1  0
  5  6  2  0
  5  7  1  0
  7  8  1  0
  8  2  1  0
  8  9  1  4
  9 10  1  0
 10 11  1  0
 10 12  2  0
M  END
> <Smiles>
OC1=C(Br)C(=O)OC1CC(O)=O

> <IC50_uM>
0.954992586

> <pIC50>
6.02

> <Activity>
1

$$$$

  SciTegic10102310092D

 17 17  0  0  0  0            999 V2000
    1.2990   -0.7500    0.0000 C   0  0
    1.2990    0.7500    0.0000 C   0  0
    2.5972    1.5031    0.0000 C   0  0
    2.5951    3.0039    0.0000 N   0  0
    3.8933    3.7570    0.0000 C   0  0
    3.8912    5.2578    0.0000 C   0  0
    5.1894    6.0109    0.0000 C   0  0
    5.1872    7.5118    0.0000 C   0  0
    6.4854    8.2649    0.0000 C   0  0  3  0  0  0
    6.4833    9.7657    0.0000 C   0  0
    5.1829   10.5134    0.0000 O   0  0
    7.7807   10.5184    0.0000 O   0  0
    7.7858    7.5171    0.0000 N   0  0
    0.0000    1.5000    0.0000 C   0  0
   -1.2990    0.7500    0.0000 C   0  0
   -1.2990   -0.7500    0.0000 C   0  0
    0.0000   -1.5000    0.0000 C   0  0
  1  2  2  0
  2  3  1  0
  3  4  1  0
  4  5  1  0
  5  6  1  0
  6  7  1  0
  7  8  1  0
  8  9  1  0
  9 10  1  0
 10 11  1  0
 10 12  2  0
  9 13  1  4
  2 14  1  0
 14 15  2  0
 15 16  1  0
 16 17  2  0
 17  1  1  0
M  END
> <Smiles>
c1c(CNCCCCC(C(O)=O)N)cccc1

> <IC50_uM>
0.954992586

> <pIC50>
6.02

> <Activity>
1

$$$$

  SciTegic10102310092D

 15 16  0  0  0  0            999 V2000
    4.0312   -5.2378    0.0000 N   0  0
    3.8933   -3.7570    0.0000 N   0  0
    2.5951   -3.0039    0.0000 C   0  0
    2.5973   -1.5031    0.0000 C   0  0
    1.2990   -0.7500    0.0000 C   0  0
    1.2990    0.7500    0.0000 C   0  0
    0.0000    1.5000    0.0000 C   0  0
   -1.2990    0.7500    0.0000 C   0  0
   -2.6003    1.4977    0.0000 O   0  0
   -3.8983    0.7459    0.0000 C   0  0
   -1.2990   -0.7500    0.0000 C   0  0
    0.0000   -1.5000    0.0000 C   0  0
    5.2447   -3.1359    0.0000 C   0  0
    6.2484   -4.2507    0.0000 N   0  0
    5.4984   -5.5497    0.0000 C   0  0
  1  2  1  0
  2  3  1  0
  3  4  1  0
  4  5  1  0
  5  6  2  0
  6  7  1  0
  7  8  2  0
  8  9  1  0
  9 10  1  0
  8 11  1  0
  5 12  1  0
 12 11  2  0
  2 13  1  0
 13 14  2  0
 14 15  1  0
 15  1  2  0
M  END
> <Smiles>
n1n(CCc(ccc(OC)c2)c2)cnc1

> <IC50_uM>
0.954992586

> <pIC50>
6.02

> <Activity>
1

$$$$

  SciTegic10102310092D

 18 19  0  0  0  0            999 V2000
    5.4984   -5.5497    0.0000 C   0  0
    4.0312   -5.2378    0.0000 C   0  0
    3.8933   -3.7570    0.0000 C   0  0
    2.5951   -3.0039    0.0000 C   0  0
    2.5973   -1.5031    0.0000 C   0  0
    3.8983   -0.7549    0.0000 C   0  0
    5.1987   -0.0072    0.0000 N   0  0
    1.2990   -0.7500    0.0000 C   0  0
    1.2990    0.7500    0.0000 C   0  0
    0.0000    1.5000    0.0000 C   0  0
   -1.2990    0.7500    0.0000 C   0  0
   -1.2990   -0.7500    0.0000 C   0  0
    0.0000   -1.5000    0.0000 C   0  0
    5.2447   -3.1359    0.0000 O   0  0
    6.2484   -4.2507    0.0000 C   0  0
    7.7388   -4.0972    0.0000 N   0  3
    8.3513   -2.7279    0.0000 O   0  5
    8.6187   -5.3120    0.0000 O   0  0
  1  2  1  0
  2  3  2  0
  3  4  1  0
  4  5  2  0
  5  6  1  0
  6  7  3  0
  5  8  1  0
  8  9  2  0
  9 10  1  0
 10 11  2  0
 11 12  1  0
 12 13  2  0
 13  8  1  0
  3 14  1  0
 14 15  1  0
 15  1  2  0
 15 16  1  0
 16 17  1  0
 16 18  2  0
M  CHG  2  16   1  17  -1
M  END
> <Smiles>
c1cc(\C=C(/C#N)\c2ccccc2)oc1[N+]([O-])=O

> <IC50_uM>
0.954992586

> <pIC50>
6.02

> <Activity>
1

$$$$

  SciTegic10102310092D

 17 17  0  0  0  0            999 V2000
    0.7500   -1.0323    0.0000 C   0  0
    1.2135    0.3943    0.0000 C   0  0
    0.0000    1.2760    0.0000 C   0  0
   -0.0031    2.7742    0.0000 C   0  0
   -1.3040    3.5228    0.0000 C   0  0
   -2.6024    2.7701    0.0000 C   0  0
   -3.9001    2.0178    0.0000 N   0  0
   -1.3071    5.0236    0.0000 C   0  0
   -2.6079    5.7721    0.0000 O   0  0
   -2.6111    7.2729    0.0000 C   0  0
   -3.9112    8.0210    0.0000 C   0  0
   -0.0094    5.7759    0.0000 O   0  0
   -1.2135    0.3943    0.0000 O   0  0
   -0.7500   -1.0323    0.0000 C   0  0
   -1.6281   -2.2462    0.0000 N   0  3
   -3.1202   -2.0921    0.0000 O   0  5
   -1.0160   -3.6157    0.0000 O   0  0
  1  2  1  0
  2  3  2  0
  3  4  1  0
  4  5  2  0
  5  6  1  0
  6  7  3  0
  5  8  1  0
  8  9  1  0
  9 10  1  0
 10 11  1  0
  8 12  2  0
  3 13  1  0
 13 14  1  0
 14  1  2  0
 14 15  1  0
 15 16  1  0
 15 17  2  0
M  CHG  2  15   1  16  -1
M  END
> <Smiles>
c1cc(\C=C(/C#N)\C(OCC)=O)oc1[N+]([O-])=O

> <IC50_uM>
0.954992586

> <pIC50>
6.02

> <Activity>
1

$$$$

  SciTegic10102310092D

 17 17  0  0  0  0            999 V2000
    1.2990   -0.7500    0.0000 C   0  0
    1.2990    0.7500    0.0000 C   0  0
    0.0000    1.5000    0.0000 C   0  0
   -0.0031    3.0008    0.0000 C   0  0
   -1.3039    3.7494    0.0000 N   0  0
   -1.3070    5.2494    0.0000 O   0  0
   -1.2990    0.7500    0.0000 N   0  0
   -1.2990   -0.7500    0.0000 C   0  0
    0.0000   -1.5000    0.0000 C   0  0
    0.0031   -3.0008    0.0000 O   0  0
    1.3039   -3.7494    0.0000 C   0  0
    1.3070   -5.2502    0.0000 N   0  0
    2.6078   -5.9988    0.0000 C   0  0
    2.6109   -7.4988    0.0000 C   0  0
    0.0101   -6.0056    0.0000 C   0  0
    0.0149   -7.5056    0.0000 C   0  0
    2.6016   -2.9971    0.0000 O   0  0
  1  2  2  0
  2  3  1  0
  3  4  1  0
  4  5  2  0
  5  6  1  0
  3  7  2  0
  7  8  1  0
  8  9  2  0
  9  1  1  0
  9 10  1  0
 10 11  1  0
 11 12  1  0
 12 13  1  0
 13 14  1  0
 12 15  1  0
 15 16  1  0
 11 17  2  0
M  END
> <Smiles>
c1cc(\C=N\O)ncc1OC(N(CC)CC)=O

> <IC50_uM>
0.954992586

> <pIC50>
6.02

> <Activity>
1

$$$$

  SciTegic10102310092D

 14 13  0  0  0  0            999 V2000
    9.0999    0.7500    0.0000 C   0  0
    7.7999    0.0000    0.0000 S   0  0
    6.5000    0.7500    0.0000 O   0  0
    5.2000    0.0000    0.0000 C   0  0
    3.9000    0.7500    0.0000 C   0  0
    3.9000    2.2500    0.0000 O   0  0
    2.6000    0.0000    0.0000 O   0  0
    1.3000    0.7500    0.0000 C   0  0
    0.0007    0.0004    0.0000 C   0  0
    6.5010   -0.7502    0.0000 O   0  0
    7.7999   -1.5000    0.0000 O   0  0
   10.3992    0.0004    0.0000 F   0  0
   10.3988    1.5002    0.0000 F   0  0
    9.0999    2.2500    0.0000 F   0  0
  1  2  1  0
  2  3  1  0
  3  4  1  0
  4  5  1  0
  5  6  2  0
  5  7  1  0
  7  8  1  0
  8  9  1  0
  2 10  2  0
  2 11  2  0
  1 12  1  0
  1 13  1  0
  1 14  1  0
M  END
> <Smiles>
C(S(OCC(=O)OCC)(=O)=O)(F)(F)F

> <IC50_uM>
0.954992586

> <pIC50>
6.02

> <Activity>
1

$$$$

  SciTegic10102310092D

 12 12  0  0  0  0            999 V2000
    1.6852   -0.3846    0.0000 C   0  0
    3.1476   -0.7184    0.0000 Cl  0  0
    1.3514    1.0778    0.0000 S   0  0
    2.7306    0.4879    0.0000 O   0  0
    1.0834    2.5536    0.0000 O   0  0
    0.0000    1.7286    0.0000 O   0  0
   -1.3515    1.0777    0.0000 C   0  0
   -1.6852   -0.3847    0.0000 C   0  0
   -0.7500   -1.5574    0.0000 O   0  0
    0.7500   -1.5574    0.0000 S   0  0
    2.2485   -1.6243    0.0000 O   0  0
   -0.1318   -2.7708    0.0000 O   0  0
  1  2  1  0
  1  3  1  0
  3  4  2  0
  3  5  2  0
  3  6  1  0
  6  7  1  0
  7  8  1  0
  8  9  1  0
  9 10  1  0
 10  1  1  0
 10 11  2  0
 10 12  2  0
M  END
> <Smiles>
C1(Cl)S(=O)(=O)OCCOS1(=O)=O

> <IC50_uM>
0.954992586

> <pIC50>
6.02

> <Activity>
1

$$$$

  SciTegic10102310092D

 17 18  0  0  0  0            999 V2000
    1.2990   -0.7500    0.0000 C   0  0
    1.2990    0.7500    0.0000 C   0  0
    0.0000    1.5000    0.0000 C   0  0  3  0  0  0
    0.0000    3.0008    0.0000 N   0  0
    1.2978    3.7529    0.0000 C   0  0
    2.5981    3.0050    0.0000 O   0  0
    1.2954    5.2529    0.0000 N   0  0
   -0.0048    6.0009    0.0000 C   0  0
   -0.0072    7.5009    0.0000 O   0  0
   -1.3026    5.2488    0.0000 C   0  0
   -2.6029    5.9967    0.0000 C   0  0
   -1.3002    3.7488    0.0000 C   0  0
   -1.2990    0.7500    0.0000 C   0  0
   -1.2990   -0.7500    0.0000 C   0  0
    0.0000   -1.5000    0.0000 C   0  0
    0.0031   -3.0008    0.0000 C   0  0
    1.3032   -3.7490    0.0000 O   0  0
  1  2  1  0
  2  3  1  0
  3  4  1  4
  4  5  1  0
  5  6  2  0
  5  7  1  0
  7  8  1  0
  8  9  2  0
  8 10  1  0
 10 11  1  0
 10 12  2  0
 12  4  1  0
  3 13  1  0
 13 14  1  0
 14 15  2  0
 15  1  1  0
 15 16  1  0
 16 17  1  0
M  END
> <Smiles>
C1CC(N2C(=O)NC(=O)C(C)=C2)CC=C1CO

> <IC50_uM>
0.954992586

> <pIC50>
6.02

> <Activity>
1

$$$$

  SciTegic10102310092D

 14 14  0  0  0  0            999 V2000
    1.6852   -0.3846    0.0000 C   0  0
    1.3514    1.0778    0.0000 S   0  0
    0.0000    1.7286    0.0000 C   0  0
   -1.3515    1.0777    0.0000 C   0  0
   -2.7072    0.4962    0.0000 C   0  0
   -2.9315   -0.9877    0.0000 O   0  0
   -4.3285   -1.5363    0.0000 C   0  0
   -4.5527   -3.0195    0.0000 C   0  0
   -3.8798    1.4316    0.0000 O   0  0
   -1.0863    2.5293    0.0000 C   0  0
   -2.2584    3.4654    0.0000 O   0  0
   -1.6852   -0.3847    0.0000 C   0  0
   -0.7500   -1.5574    0.0000 S   0  0
    0.7500   -1.5574    0.0000 C   0  0
  1  2  1  0
  2  3  1  0
  3  4  1  0
  4  5  1  0
  5  6  1  0
  6  7  1  0
  7  8  1  0
  5  9  2  0
  4 10  1  0
 10 11  1  0
  4 12  1  0
 12 13  1  0
 13 14  1  0
 14  1  1  0
M  END
> <Smiles>
C1SCC(C(OCC)=O)(CO)CSC1

> <IC50_uM>
0.954992586

> <pIC50>
6.02

> <Activity>
1

$$$$

  SciTegic10102310092D

 17 20  0  0  0  0            999 V2000
    0.1028    2.1593    0.0000 C   0  0  3  0  0  0
   -0.8157    0.9665    0.0000 C   0  0
   -0.8157   -0.8089    0.0000 C   0  0  3  0  0  0
    0.6718   -1.2133    0.0000 C   0  0  3  0  0  0
    0.6718   -2.3169    0.0000 N   0  0
    1.6040   -2.8310    0.0000 O   0  0
    2.5363   -2.3169    0.0000 C   0  0  3  0  0  0
    3.8262   -3.0917    0.0000 C   0  0
    5.1386   -2.3654    0.0000 O   0  0
    2.5363   -1.2133    0.0000 C   0  0
   -0.6198   -3.0796    0.0000 C   0  0
    1.6451    0.0274    0.0000 C   0  0  3  0  0  0
    1.6451    1.5286    0.0000 C   0  0
    0.1645   -0.4044    0.0000 C   0  0
   -2.4472   -1.2064    0.0000 C   0  0
   -1.4738    0.0548    0.0000 C   0  0  3  0  0  0
   -1.4738    1.5972    0.0000 C   0  0
  1  2  1  4
  3  2  1  4
  3  4  1  0
  4  5  1  0
  5  6  1  0
  6  7  1  0
  7  8  1  4
  8  9  1  0
  7 10  1  0
  4 10  1  4
  5 11  1  0
  4 12  1  0
 12 13  1  4
 13  1  1  0
 12 14  1  0
  3 15  1  0
 16 15  1  4
 16 14  1  0
 16 17  1  0
 17  1  1  0
M  END
> <Smiles>
C12CC(C3(N(OC(CO)C3)C)C(C1)C4)CC4C2

> <IC50_uM>
0.954992586

> <pIC50>
6.02

> <Activity>
1

$$$$

  SciTegic10102310092D

 17 18  0  0  0  0            999 V2000
    1.2990   -0.7500    0.0000 C   0  0
    2.5981   -1.5000    0.0000 O   0  0
    1.2990    0.7500    0.0000 C   0  0
    0.0000    1.5000    0.0000 C   0  0
    0.0000    3.0000    0.0000 N   0  0
   -1.2991    3.7500    0.0000 C   0  0
   -1.2960    5.2508    0.0000 C   0  0
    0.0041    5.9990    0.0000 O   0  0
   -2.5981    3.0000    0.0000 C   0  0
   -2.5981    1.5000    0.0000 C   0  0
   -3.8994    0.7522    0.0000 C   0  0
   -5.1974    1.5041    0.0000 O   0  0
   -3.8994    3.7477    0.0000 C   0  0
   -5.1974    2.9959    0.0000 O   0  0
   -1.2990    0.7500    0.0000 C   0  0
   -1.2990   -0.7500    0.0000 C   0  0
    0.0000   -1.5000    0.0000 O   0  0
  1  2  2  0
  1  3  1  0
  3  4  1  0
  4  5  2  0
  5  6  1  0
  6  7  1  0
  7  8  1  0
  6  9  2  0
  9 10  1  0
 10 11  1  0
 11 12  1  0
  9 13  1  0
 13 14  1  0
  4 15  1  0
 15 10  2  0
 15 16  1  0
 16 17  1  0
 17  1  1  0
M  END
> <Smiles>
C1(=O)Cc(nc(CO)c(c2CO)CO)c2CO1

> <IC50_uM>
0.954992586

> <pIC50>
6.02

> <Activity>
1

$$$$

  SciTegic10102310092D

 18 20  0  0  0  0            999 V2000
    2.5981   -1.5000    0.0000 O   0  0
    1.2990   -0.7500    0.0000 C   0  0
    1.2990    0.7500    0.0000 C   0  0
    0.0000    1.5000    0.0000 C   0  0
    0.0000    3.0000    0.0000 C   0  0
    1.2990    3.7500    0.0000 C   0  0
    1.2990    5.2500    0.0000 C   0  0
    0.0000    6.0000    0.0000 C   0  0
   -1.2991    5.2500    0.0000 C   0  0
   -1.2991    3.7500    0.0000 C   0  0
   -2.5981    3.0000    0.0000 C   0  0
   -3.8971    3.7500    0.0000 O   0  0
   -2.5981    1.5000    0.0000 C   0  0
   -3.8994    0.7522    0.0000 O   0  0
   -5.1974    1.5041    0.0000 C   0  0
   -1.2990    0.7500    0.0000 C   0  0
   -1.2990   -0.7500    0.0000 C   0  0
    0.0000   -1.5000    0.0000 C   0  0
  1  2  1  0
  2  3  2  0
  3  4  1  0
  4  5  2  0
  5  6  1  0
  6  7  2  0
  7  8  1  0
  8  9  2  0
  5 10  1  0
 10  9  1  0
 10 11  2  0
 11 12  1  0
 11 13  1  0
 13 14  1  0
 14 15  1  0
  4 16  1  0
 16 13  2  0
 16 17  1  0
 17 18  2  0
 18  2  1  0
M  END
> <Smiles>
Oc1cc(c(cccc2)c2c(O)c3OC)c3cc1

> <IC50_uM>
0.954992586

> <pIC50>
6.02

> <Activity>
1

$$$$

  SciTegic10102310092D

 17 17  0  0  0  0            999 V2000
    6.4990   -0.7409    0.0000 N   0  0
    5.2003   -1.4932    0.0000 C   0  0
    3.8990   -0.7455    0.0000 C   0  0
    2.6003   -1.4977    0.0000 C   0  0
    1.2990   -0.7500    0.0000 N   0  0
    1.2990    0.7500    0.0000 C   0  0
    0.0000    1.5000    0.0000 C   0  0
   -1.2990    0.7500    0.0000 C   0  0
   -2.5981    1.5000    0.0000 O   0  0
   -1.2990   -0.7500    0.0000 N   0  0
    0.0000   -1.5000    0.0000 C   0  0
    0.0000   -3.0000    0.0000 O   0  0
    5.2029   -2.9932    0.0000 O   0  0
    7.8003   -1.4887    0.0000 C   0  0
    9.0983   -0.7368    0.0000 C   0  0
    6.4995    0.7599    0.0000 C   0  0
    7.7983    1.5103    0.0000 C   0  0
  1  2  1  0
  2  3  1  0
  3  4  1  0
  4  5  1  0
  5  6  1  0
  6  7  2  0
  7  8  1  0
  8  9  2  0
  8 10  1  0
 10 11  1  0
 11  5  1  0
 11 12  2  0
  2 13  2  0
  1 14  1  0
 14 15  1  0
  1 16  1  0
 16 17  1  0
M  END
> <Smiles>
N(C(CCN1C=CC(=O)NC1=O)=O)(CC)CC

> <IC50_uM>
0.954992586

> <pIC50>
6.02

> <Activity>
1

$$$$

  SciTegic10102310092D

 34 37  0  0  0  0            999 V2000
    2.5981   -1.5000    0.0000 C   0  0
    1.2990   -0.7500    0.0000 C   0  0
    1.2990    0.7500    0.0000 C   0  0
    0.0000    1.5000    0.0000 C   0  0
    0.0000    3.0008    0.0000 C   0  0
    0.0000    4.5008    0.0000 N   0  0
   -1.2990    0.7500    0.0000 C   0  0
   -1.2990   -0.7500    0.0000 C   0  0
   -2.5981   -1.5000    0.0000 C   0  0
    0.0000   -1.5000    0.0000 C   0  0
    0.0031   -3.0008    0.0000 O   0  0
    1.3039   -3.7494    0.0000 C   0  0
    2.6005   -2.9949    0.0000 N   0  0
    3.9021   -3.7404    0.0000 C   0  0
    5.2008   -2.9882    0.0000 N   0  0
    6.5021   -3.7360    0.0000 C   0  0
    7.8012   -2.9860    0.0000 C   0  0
    9.1002   -3.7360    0.0000 C   0  0
    9.1002   -5.2360    0.0000 N   0  0
   10.3999   -5.9864    0.0000 C   0  0
   10.3976   -7.4865    0.0000 C   0  0
   11.6955   -8.2385    0.0000 C   0  0
   12.9957   -7.4906    0.0000 C   0  0
   12.9981   -5.9906    0.0000 C   0  0
   11.7002   -5.2385    0.0000 C   0  0
   11.7057   -3.7377    0.0000 C   0  0
   10.4092   -2.9833    0.0000 N   0  0
   13.0071   -2.9917    0.0000 O   0  0
    7.8012   -5.9860    0.0000 C   0  0
    6.5021   -5.2360    0.0000 C   0  0
    3.9073   -5.2404    0.0000 N   0  0
    2.6108   -5.9949    0.0000 C   0  0
    1.3092   -5.2494    0.0000 C   0  0
    0.0128   -6.0039    0.0000 Br  0  0
  1  2  1  0
  2  3  2  0
  3  4  1  0
  4  5  1  0
  5  6  3  0
  4  7  2  0
  7  8  1  0
  8  9  1  0
  8 10  2  0
 10  2  1  0
 10 11  1  0
 11 12  1  0
 12 13  2  0
 13 14  1  0
 14 15  1  0
 15 16  1  0
 16 17  1  0
 17 18  1  0
 18 19  1  0
 19 20  1  0
 20 21  2  0
 21 22  1  0
 22 23  2  0
 23 24  1  0
 24 25  2  0
 25 20  1  0
 25 26  1  0
 26 27  1  0
 26 28  2  0
 19 29  1  0
 29 30  1  0
 30 16  1  0
 14 31  2  0
 31 32  1  0
 32 33  2  0
 33 12  1  0
 33 34  1  0
M  END
> <Smiles>
Cc1cc(C#N)cc(C)c1Oc1nc(NC2CCN(c3ccccc3C(N)=O)CC2)ncc1Br

> <IC50_uM>
0.967

> <pIC50>
6.014573526

> <Activity>
1

$$$$

  SciTegic10102310092D

 27 29  0  0  0  0            999 V2000
    2.5981   -1.5000    0.0000 C   0  0
    1.2990   -0.7500    0.0000 C   0  0
    1.2990    0.7500    0.0000 C   0  0
    0.0000    1.5000    0.0000 C   0  0
    0.0000    3.0000    0.0000 C   0  0
   -1.2990    0.7500    0.0000 C   0  0
   -1.2990   -0.7500    0.0000 C   0  0
   -2.5972   -1.5031    0.0000 O   0  0
   -2.5951   -3.0039    0.0000 C   0  0
   -3.8915   -3.7585    0.0000 C   0  0
   -5.1954   -3.0153    0.0000 C   0  0
   -6.4908   -3.7717    0.0000 C   0  0
   -5.2033   -1.5153    0.0000 C   0  0
   -3.8863   -5.2585    0.0000 C   0  0
   -5.1828   -6.0130    0.0000 O   0  0
   -2.5847   -6.0040    0.0000 N   0  0
   -1.2883   -5.2495    0.0000 C   0  0
    0.0134   -5.9950    0.0000 O   0  0
   -1.2935   -3.7495    0.0000 N   0  0
    0.0022   -2.9920    0.0000 C   0  0
    1.3065   -3.7344    0.0000 C   0  0
    2.6025   -2.9792    0.0000 C   0  0
    3.9046   -3.7239    0.0000 C   0  0
    3.9107   -5.2239    0.0000 C   0  0
    2.6148   -5.9792    0.0000 C   0  0
    1.3127   -5.2345    0.0000 C   0  0
    0.0000   -1.5000    0.0000 C   0  0
  1  2  1  0
  2  3  2  0
  3  4  1  0
  4  5  1  0
  4  6  2  0
  6  7  1  0
  7  8  1  0
  8  9  1  0
  9 10  2  0
 10 11  1  0
 11 12  1  0
 11 13  1  0
 10 14  1  0
 14 15  2  0
 14 16  1  0
 16 17  1  0
 17 18  2  0
 17 19  1  0
 19  9  1  0
 19 20  1  0
 20 21  1  0
 21 22  2  0
 22 23  1  0
 23 24  2  0
 24 25  1  0
 25 26  2  0
 26 21  1  0
  7 27  2  0
 27  2  1  0
M  END
> <Smiles>
Cc1cc(C)cc(Oc2c(C(C)C)c(=O)[nH]c(=O)n2Cc2ccccc2)c1

> <IC50_uM>
0.975

> <pIC50>
6.010995384

> <Activity>
1

$$$$

  SciTegic10102310092D

 17 16  0  0  0  0            999 V2000
    5.2000    0.0000    0.0000 C   0  0
    5.2000   -1.5007    0.0000 C   0  0
    4.3343   -2.0013    0.0000 O   0  0
    6.4992   -2.2503    0.0000 C   0  0
    3.8732   -0.7619    0.0000 C   0  0
    3.8703   -1.7619    0.0000 C   0  0
    3.0085   -0.2597    0.0000 C   0  0
    3.9000    0.7500    0.0000 C   0  0
    3.8985    2.2508    0.0000 C   0  0
    2.5986    3.0008    0.0000 C   0  0
    1.3000    2.2500    0.0000 O   0  0
    2.5971    4.5008    0.0000 O   0  0
    6.5000    0.7500    0.0000 C   0  0
    7.7999    0.0000    0.0000 C   0  0
    9.0999    0.7500    0.0000 C   0  0
    9.0999    2.2500    0.0000 O   0  0
   10.3992    0.0004    0.0000 O   0  0
  1  2  1  0
  2  3  2  0
  2  4  1  0
  1  5  1  0
  5  6  1  0
  5  7  1  0
  1  8  1  0
  8  9  1  0
  9 10  1  0
 10 11  1  0
 10 12  2  0
  1 13  1  0
 13 14  1  0
 14 15  1  0
 15 16  1  0
 15 17  2  0
M  END
> <Smiles>
C(C(=O)C)(C(C)C)(CCC(O)=O)CCC(O)=O

> <IC50_uM>
0.977237221

> <pIC50>
6.01

> <Activity>
1

$$$$

  SciTegic10102310092D

 11 11  0  0  0  0            999 V2000
    1.6281   -2.2462    0.0000 C   0  0
    0.7500   -1.0323    0.0000 C   0  0  3  0  0  0
    1.2135    0.3943    0.0000 C   0  0
    0.0000    1.2760    0.0000 N   0  0
   -1.2135    0.3943    0.0000 C   0  0
   -2.6401    0.8578    0.0000 N   0  0
   -0.7500   -1.0323    0.0000 S   0  0
    2.6401    0.8578    0.0000 O   0  0
    1.0157   -3.6164    0.0000 C   0  0
   -0.4763   -3.7706    0.0000 O   0  0
    1.8949   -4.8318    0.0000 O   0  0
  2  1  1  4
  2  3  1  0
  3  4  1  0
  4  5  1  0
  5  6  2  0
  5  7  1  0
  7  2  1  0
  3  8  2  0
  1  9  1  0
  9 10  1  0
  9 11  2  0
M  END
> <Smiles>
C(C1C(NC(=N)S1)=O)C(O)=O

> <IC50_uM>
0.977237221

> <pIC50>
6.01

> <Activity>
1

$$$$

  SciTegic10102310092D

 17 16  0  0  0  0            999 V2000
    5.2000    0.0000    0.0000 C   0  0
    5.2000   -1.5007    0.0000 C   0  0
    4.3343   -2.0013    0.0000 O   0  0
    6.4992   -2.2503    0.0000 C   0  0
    3.8732   -0.7619    0.0000 C   0  0
    3.8703   -1.7619    0.0000 C   0  0
    3.0085   -0.2597    0.0000 C   0  0
    3.9000    0.7500    0.0000 C   0  0
    3.8985    2.2508    0.0000 C   0  0
    2.5986    3.0008    0.0000 C   0  0
    1.3000    2.2500    0.0000 O   0  0
    2.5971    4.5008    0.0000 O   0  0
    6.5000    0.7500    0.0000 C   0  0
    7.7999    0.0000    0.0000 C   0  0
    9.0999    0.7500    0.0000 C   0  0
    9.0999    2.2500    0.0000 O   0  0
   10.3992    0.0004    0.0000 O   0  0
  1  2  1  0
  2  3  2  0
  2  4  1  0
  1  5  1  0
  5  6  2  0
  5  7  1  0
  1  8  1  0
  8  9  1  0
  9 10  1  0
 10 11  1  0
 10 12  2  0
  1 13  1  0
 13 14  1  0
 14 15  1  0
 15 16  1  0
 15 17  2  0
M  END
> <Smiles>
C(C(=O)C)(C(=C)C)(CCC(O)=O)CCC(O)=O

> <IC50_uM>
0.977237221

> <pIC50>
6.01

> <Activity>
1

$$$$

  SciTegic10102310092D

 13 13  0  0  0  0            999 V2000
    2.5973   -1.5031    0.0000 S   0  0  3  0  0  0
    1.2990   -0.7500    0.0000 C   0  0
    1.2990    0.7500    0.0000 C   0  0
    0.0000    1.5000    0.0000 C   0  0
   -1.2990    0.7500    0.0000 C   0  0
   -2.5981    1.5000    0.0000 O   0  0
   -1.2990   -0.7500    0.0000 C   0  0
   -2.5981   -1.5000    0.0000 Cl  0  0
    0.0000   -1.5000    0.0000 C   0  0
    0.0000    3.0000    0.0000 Cl  0  0
    3.8976   -0.7553    0.0000 O   0  0
    2.5951   -3.0039    0.0000 O   0  0
    3.8926   -3.7566    0.0000 O   0  0
  1  2  1  0
  2  3  2  0
  3  4  1  0
  4  5  2  0
  5  6  1  0
  5  7  1  0
  7  8  1  0
  7  9  2  0
  9  2  1  0
  4 10  1  0
  1 11  2  0
  1 12  1  4
 12 13  1  0
M  END
> <Smiles>
S(c1cc(c(O)c(Cl)c1)Cl)(=O)OO

> <IC50_uM>
0.977237221

> <pIC50>
6.01

> <Activity>
1

$$$$

  SciTegic10102310092D

 18 20  0  0  0  0            999 V2000
    2.5981   -1.5000    0.0000 O   0  0
    1.2990   -0.7500    0.0000 C   0  0
    1.2990    0.7500    0.0000 N   0  0
    0.0000    1.5000    0.0000 C   0  0
   -1.2990    0.7500    0.0000 N   0  0
   -1.2990   -0.7500    0.0000 C   0  0
   -2.5981   -1.5000    0.0000 C   0  0
   -2.5981   -3.0000    0.0000 N   0  0
   -3.8971   -3.7500    0.0000 C   0  0
   -1.2990   -3.7500    0.0000 C   0  0
    0.0000   -3.0000    0.0000 O   0  0
    0.0000   -1.5000    0.0000 C   0  0
    0.0000    3.0008    0.0000 C   0  0
    1.2978    3.7529    0.0000 C   0  0
    1.2954    5.2529    0.0000 C   0  0
   -0.0048    6.0009    0.0000 C   0  0
   -1.3026    5.2488    0.0000 C   0  0
   -1.3002    3.7488    0.0000 C   0  0
  1  2  1  0
  2  3  2  0
  3  4  1  0
  4  5  2  0
  5  6  1  0
  6  7  1  0
  7  8  1  0
  8  9  1  0
  8 10  1  0
 10 11  1  0
  6 12  2  0
 12  2  1  0
 12 11  1  0
  4 13  1  0
 13 14  2  0
 14 15  1  0
 15 16  2  0
 16 17  1  0
 17 18  2  0
 18 13  1  0
M  END
> <Smiles>
Oc1nc(nc(CN(C)CO2)c12)c3ccccc3

> <IC50_uM>
0.977237221

> <pIC50>
6.01

> <Activity>
1

$$$$

  SciTegic10102310092D

 18 20  0  0  0  0            999 V2000
    1.0338   -4.4109    0.0000 C   0  0
    1.8032   -3.1233    0.0000 C   0  0
    2.4133   -1.7530    0.0000 O   0  0
    1.2990   -0.7500    0.0000 C   0  0
    1.2990    0.7500    0.0000 N   0  0
    0.0000    1.5000    0.0000 C   0  0
   -1.2990    0.7500    0.0000 N   0  0
   -1.2990   -0.7500    0.0000 C   0  0
   -2.5981   -1.5000    0.0000 N   0  0
    0.0000   -1.5000    0.0000 C   0  0
    0.3114   -2.9665    0.0000 C   0  0  3  0  0  0
   -0.6928   -4.0817    0.0000 C   0  0
   -2.1743   -3.8808    0.0000 C   0  0
   -3.0913   -5.0679    0.0000 C   0  0
   -2.5218   -6.4556    0.0000 C   0  0
   -1.0353   -6.6562    0.0000 C   0  0
   -0.1183   -5.4691    0.0000 C   0  0
    3.3031   -3.1010    0.0000 C   0  0
  1  2  1  0
  2  3  1  0
  3  4  1  0
  4  5  2  0
  5  6  1  0
  6  7  2  0
  7  8  1  0
  8  9  1  0
  4 10  1  0
 10  8  2  0
 10 11  1  0
 11  2  1  0
 11 12  1  4
 12 13  2  0
 13 14  1  0
 14 15  2  0
 15 16  1  0
 16 17  2  0
 17 12  1  0
  2 18  1  0
M  END
> <Smiles>
CC1(Oc(ncnc2N)c2C1c3ccccc3)C

> <IC50_uM>
0.977237221

> <pIC50>
6.01

> <Activity>
1

$$$$

  SciTegic10102310092D

 17 18  0  0  0  0            999 V2000
   -3.0055    2.5959    0.0000 C   0  0  3  0  0  0
   -2.2578    1.2945    0.0000 C   0  0  3  0  0  0
   -0.7526    1.2945    0.0000 C   0  0
    0.0000    0.0000    0.0000 C   0  0
   -0.7526   -1.2945    0.0000 N   0  0
   -0.0046   -2.5947    0.0000 C   0  0
   -2.2578   -1.2945    0.0000 C   0  0
   -3.0059   -2.5947    0.0000 O   0  0
   -3.0105    0.0000    0.0000 C   0  0  3  0  0  0
   -4.3050    0.7526    0.0000 O   0  0
   -4.3050   -0.7526    0.0000 C   0  0
   -4.5063    2.6017    0.0000 C   0  0
   -5.2521    3.9031    0.0000 C   0  0
   -2.2531    3.8945    0.0000 C   0  0
   -0.7531    3.8918    0.0000 O   0  0
   -3.0008    5.1959    0.0000 O   0  0
   -2.2488    6.4938    0.0000 C   0  0
  1  2  1  0
  2  3  1  4
  3  4  1  0
  4  5  1  0
  5  6  1  0
  5  7  1  0
  7  8  2  0
  7  9  1  0
  9  2  1  0
  9 10  1  4
 10 11  1  0
 11  9  1  0
  1 12  1  4
 12 13  1  0
  1 14  1  0
 14 15  2  0
 14 16  1  0
 16 17  1  0
M  END
> <Smiles>
C(C1CCN(C)C(=O)C12OC2)(CC)C(=O)OC

> <IC50_uM>
0.977237221

> <pIC50>
6.01

> <Activity>
1

$$$$

  SciTegic10102310092D

 17 18  0  0  0  0            999 V2000
    1.5381   -2.2252    0.0000 O   0  0
    1.2990   -0.7500    0.0000 C   0  0  3  0  0  0
    1.2990    0.7500    0.0000 C   0  0  3  0  0  0
    2.7996    0.6920    0.0000 C   0  0
    2.7777   -0.8079    0.0000 C   0  0
    2.3461   -2.2423    0.0000 O   0  0
    3.3697   -3.3388    0.0000 C   0  0
    4.2337   -0.4541    0.0000 O   0  0
    5.2662   -1.5421    0.0000 C   0  0
    0.0000    1.5000    0.0000 C   0  0
   -1.2990    0.7500    0.0000 C   0  0
   -1.2990   -0.7500    0.0000 C   0  0
    0.0000   -1.5000    0.0000 C   0  0
    0.0000    3.0000    0.0000 O   0  0
    0.3775   -3.1768    0.0000 C   0  0
    0.6203   -4.6570    0.0000 O   0  0
   -1.0259   -2.6474    0.0000 C   0  0
  2  1  1  4
  2  3  1  0
  3  4  1  4
  4  5  1  0
  5  2  1  0
  5  6  1  0
  6  7  1  0
  5  8  1  0
  8  9  1  0
  3 10  1  0
 10 11  1  0
 11 12  1  0
 12 13  1  0
 13  2  1  0
 10 14  2  0
  1 15  1  0
 15 16  2  0
 15 17  1  0
M  END
> <Smiles>
O(C12C(CC1(OC)OC)C(CCC2)=O)C(=O)C

> <IC50_uM>
0.977237221

> <pIC50>
6.01

> <Activity>
1

$$$$

  SciTegic10102310092D

 17 17  0  0  0  0            999 V2000
    2.6003   -1.4977    0.0000 C   0  0  3  0  0  0
    1.2990   -0.7500    0.0000 C   0  0
    1.2990    0.7500    0.0000 C   0  0
    0.0000    1.5000    0.0000 N   0  0
   -1.2990    0.7500    0.0000 C   0  0
   -2.5981    1.5000    0.0000 O   0  0
   -1.2990   -0.7500    0.0000 N   0  0
    0.0000   -1.5000    0.0000 C   0  0
    0.0000   -3.0000    0.0000 O   0  0
    2.6060   -2.9986    0.0000 C   0  0
    3.9075   -3.7444    0.0000 O   0  0
    3.8990   -0.7455    0.0000 O   0  0
    5.2003   -1.4932    0.0000 C   0  0  3  0  0  0
    6.4990   -0.7409    0.0000 C   0  0
    7.7996   -1.4883    0.0000 O   0  0
    5.2060   -2.9940    0.0000 C   0  0
    6.5074   -3.7399    0.0000 O   0  0
  1  2  1  0
  2  3  2  0
  3  4  1  0
  4  5  2  0
  5  6  1  0
  5  7  1  0
  7  8  2  0
  8  2  1  0
  8  9  1  0
  1 10  1  4
 10 11  2  0
  1 12  1  0
 13 12  1  4
 13 14  1  0
 14 15  2  0
 13 16  1  0
 16 17  1  0
M  END
> <Smiles>
C(c1cnc(O)nc1O)(C=O)OC(C=O)CO

> <IC50_uM>
0.977237221

> <pIC50>
6.01

> <Activity>
1

$$$$

  SciTegic10102310092D

 13 12  0  0  0  0            999 V2000
    6.5000    0.7500    0.0000 C   0  0  3  0  0  0
    6.5000    2.2500    0.0000 N   0  0
    5.2000    0.0000    0.0000 C   0  0
    3.9000    0.7500    0.0000 S   0  0
    2.6000    0.0000    0.0000 C   0  0
    2.6000   -1.5000    0.0000 O   0  0
    1.3000    0.7500    0.0000 N   0  0
    0.0007    0.0004    0.0000 C   0  0
    7.7999    0.0000    0.0000 C   0  0
    7.7999   -1.5000    0.0000 O   0  0
    9.0999    0.7500    0.0000 O   0  0
   10.3999    0.0000    0.0000 C   0  0
   11.6992    0.7496    0.0000 C   0  0
  1  2  1  4
  1  3  1  0
  3  4  1  0
  4  5  1  0
  5  6  2  0
  5  7  1  0
  7  8  1  0
  1  9  1  0
  9 10  2  0
  9 11  1  0
 11 12  1  0
 12 13  1  0
M  END
> <Smiles>
C(N)(CSC(=O)NC)C(=O)OCC

> <IC50_uM>
0.977237221

> <pIC50>
6.01

> <Activity>
1

$$$$

  SciTegic10102310092D

 18 19  0  0  0  0            999 V2000
    2.5951   -3.0039    0.0000 C   0  0
    1.2925   -3.7494    0.0000 N   0  0
   -0.0048   -2.9949    0.0000 C   0  0
   -1.3015   -2.2408    0.0000 N   0  0
    3.8933   -3.7570    0.0000 N   0  0
    3.8912   -5.2578    0.0000 C   0  0
    5.1894   -6.0109    0.0000 C   0  0  3  0  0  0
    5.3273   -7.4917    0.0000 O   0  0
    6.7945   -7.8036    0.0000 C   0  0
    7.5445   -6.5046    0.0000 C   0  0
    6.5408   -5.3899    0.0000 C   0  0
    2.5973   -1.5031    0.0000 N   0  0
    1.2990   -0.7500    0.0000 C   0  0
    1.2990    0.7500    0.0000 C   0  0
    0.0000    1.5000    0.0000 N   0  0
   -1.2990    0.7500    0.0000 C   0  0
   -1.2990   -0.7500    0.0000 C   0  0
    0.0000   -1.5000    0.0000 C   0  0
  1  2  1  0
  2  3  1  0
  3  4  3  0
  1  5  1  0
  5  6  1  0
  7  6  1  4
  7  8  1  0
  8  9  1  0
  9 10  1  0
 10 11  1  0
 11  7  1  0
  1 12  2  0
 12 13  1  0
 13 14  2  0
 14 15  1  0
 15 16  2  0
 16 17  1  0
 17 18  2  0
 18 13  1  0
M  END
> <Smiles>
C(/NC#N)(\NCC1OCCC1)=N/c2cnccc2

> <IC50_uM>
0.977237221

> <pIC50>
6.01

> <Activity>
1

$$$$

  SciTegic10102310092D

 16 17  0  0  0  0            999 V2000
   -0.6890   -4.0818    0.0000 C   0  0
    0.3114   -2.9665    0.0000 C   0  0
    1.8032   -3.1233    0.0000 N   0  0
    2.4133   -1.7530    0.0000 C   0  0
    1.2990   -0.7500    0.0000 N   0  0
    1.2990    0.7500    0.0000 C   0  0
    0.0000    1.5000    0.0000 N   0  0
   -0.0031    3.0008    0.0000 C   0  0
   -1.3039    3.7494    0.0000 C   0  0
   -1.3070    5.2494    0.0000 Cl  0  0
   -1.2990    0.7500    0.0000 N   0  0
   -1.2990   -0.7500    0.0000 N   0  0
    2.5981    1.5000    0.0000 O   0  0
    0.0000   -1.5000    0.0000 C   0  0
   -0.2237   -5.5078    0.0000 O   0  0
   -2.1567   -3.7722    0.0000 N   0  0
  1  2  1  0
  2  3  1  0
  3  4  2  0
  4  5  1  0
  5  6  1  0
  6  7  1  0
  7  8  1  0
  8  9  1  0
  9 10  1  0
  7 11  1  0
 11 12  2  0
  6 13  2  0
  5 14  1  0
 14  2  2  0
 14 12  1  0
  1 15  2  0
  1 16  1  0
M  END
> <Smiles>
C(c1ncn(C(N(CCCl)N=N2)=O)c12)(=O)N

> <IC50_uM>
0.977237221

> <pIC50>
6.01

> <Activity>
1

$$$$

  SciTegic10102310092D

 18 20  0  0  0  0            999 V2000
    1.6317   -2.2458    0.0000 C   0  0
    0.7500   -1.0323    0.0000 C   0  0
    1.2135    0.3943    0.0000 N   0  0
    0.0000    1.2760    0.0000 N   0  0
   -0.4623    2.7009    0.0000 N   0  0
   -1.9623    2.7008    0.0000 N   0  0
   -2.4258    1.2743    0.0000 N   0  0
    0.4164    3.9144    0.0000 C   0  0
   -0.1953    5.2849    0.0000 C   0  0
    0.6844    6.4998    0.0000 O   0  0
   -1.2135    0.3943    0.0000 C   0  0
   -0.7500   -1.0323    0.0000 C   0  0
   -1.6321   -2.2464    0.0000 C   0  0
   -3.1265   -2.2016    0.0000 C   0  0
   -3.9143   -3.4780    0.0000 C   0  0
   -3.2028   -4.7985    0.0000 C   0  0
   -1.7035   -4.8426    0.0000 C   0  0
   -0.9156   -3.5662    0.0000 C   0  0
  1  2  1  0
  2  3  2  0
  3  4  1  0
  4  5  1  0
  5  6  1  0
  6  7  2  0
  5  8  1  0
  8  9  1  0
  9 10  1  0
  4 11  1  0
 11  7  1  0
 11 12  2  0
 12  2  1  0
 12 13  1  0
 13 14  2  0
 14 15  1  0
 15 16  2  0
 16 17  1  0
 17 18  2  0
 18 13  1  0
M  END
> <Smiles>
Cc1nn(n(nn2)CCO)c2c1c3ccccc3

> <IC50_uM>
0.977237221

> <pIC50>
6.01

> <Activity>
1

$$$$

  SciTegic10102310092D

 16 17  0  0  0  0            999 V2000
   -0.6936   -4.0776    0.0000 C   0  0
    0.3114   -2.9665    0.0000 C   0  0  3  0  0  0
    1.8032   -3.1233    0.0000 C   0  0
    2.4133   -1.7530    0.0000 S   0  0
    1.2990   -0.7500    0.0000 C   0  0  3  0  0  0
    1.2990    0.7500    0.0000 O   0  0
    0.0000    1.5000    0.0000 N   0  0
   -1.2990    0.7500    0.0000 C   0  0
   -1.2990   -0.7500    0.0000 C   0  0
   -2.5981   -1.5000    0.0000 O   0  0
    0.0000   -1.5000    0.0000 N   0  0
    1.0339   -4.4109    0.0000 C   0  0
    3.3031   -3.1010    0.0000 C   0  0
   -0.2329   -5.5051    0.0000 O   0  0
   -2.1611   -3.7632    0.0000 O   0  0
   -3.1674   -4.8756    0.0000 C   0  0
  2  1  1  4
  2  3  1  0
  3  4  1  0
  5  4  1  4
  5  6  1  0
  6  7  1  0
  7  8  2  0
  8  9  1  0
  9 10  2  0
  5 11  1  0
 11  2  1  0
 11  9  1  0
  3 12  1  0
  3 13  1  0
  1 14  2  0
  1 15  1  0
 15 16  1  0
M  END
> <Smiles>
C(C1C(SC(ON=CC2=O)N12)(C)C)(=O)OC

> <IC50_uM>
0.977237221

> <pIC50>
6.01

> <Activity>
1

$$$$

  SciTegic10102310092D

 16 18  0  0  0  0            999 V2000
   -0.6393   -3.1910    0.0000 O   0  0
    0.8005   -2.7705    0.0000 S   0  0
    2.0885   -2.0016    0.0000 C   0  0
    1.2990   -0.7500    0.0000 C   0  0  3  0  0  0
    2.7408   -0.3333    0.0000 N   0  0
    3.8220   -1.3730    0.0000 C   0  0
    5.2630   -0.9565    0.0000 C   0  0
    5.6228    0.4997    0.0000 O   0  0
    4.5416    1.5394    0.0000 C   0  0
    3.1006    1.1229    0.0000 C   0  0
    1.2990    0.7500    0.0000 C   0  0
    0.0000    1.5000    0.0000 C   0  0
   -1.2990    0.7500    0.0000 C   0  0
   -1.2990   -0.7500    0.0000 C   0  0
    0.0000   -1.5000    0.0000 C   0  0  3  0  0  0
    1.8932   -3.7981    0.0000 O   0  0
  1  2  2  0
  2  3  1  0
  3  4  1  0
  4  5  1  4
  5  6  1  0
  6  7  1  0
  7  8  1  0
  8  9  1  0
  9 10  1  0
 10  5  1  0
  4 11  1  0
 11 12  1  0
 12 13  1  0
 13 14  1  0
  4 15  1  0
 15  2  1  0
 15 14  1  4
  2 16  2  0
M  END
> <Smiles>
O=S1(CC(N2CCOCC2)(CCCC3)C13)=O

> <IC50_uM>
0.977237221

> <pIC50>
6.01

> <Activity>
1

$$$$

  SciTegic10102310092D

 22 24  0  0  0  0            999 V2000
    2.5987   -1.5004    0.0000 C   0  0  3  0  0  0
    1.2990   -0.7500    0.0000 C   0  0
    1.2990    0.7500    0.0000 C   0  0
    2.5981    1.5000    0.0000 O   0  0
    2.5981    3.0000    0.0000 C   0  0
    3.8971    3.7500    0.0000 C   0  0
    1.2990    3.7500    0.0000 C   0  0
    0.0000    3.0000    0.0000 C   0  0
   -1.2991    3.7500    0.0000 O   0  0
    0.0000    1.5000    0.0000 C   0  0
   -1.2990    0.7500    0.0000 C   0  0
   -2.5981    1.5000    0.0000 O   0  0
   -1.2990   -0.7500    0.0000 C   0  0
    0.0000   -1.5000    0.0000 C   0  0
    0.0000   -3.0000    0.0000 O   0  0
    3.8991   -0.7525    0.0000 C   0  0  3  0  0  0
    3.9015    0.7475    0.0000 O   0  0
    5.1969   -1.5045    0.0000 C   0  0
    5.1945   -3.0045    0.0000 N   0  0
    6.4924   -3.7566    0.0000 C   0  0
    3.8943   -3.7525    0.0000 C   0  0
    2.5965   -3.0004    0.0000 C   0  0
  1  2  1  4
  2  3  2  0
  3  4  1  0
  4  5  1  0
  5  6  1  0
  5  7  2  0
  7  8  1  0
  8  9  2  0
  3 10  1  0
 10  8  1  0
 10 11  2  0
 11 12  1  0
 11 13  1  0
 13 14  2  0
 14  2  1  0
 14 15  1  0
  1 16  1  0
 16 17  1  4
 16 18  1  0
 18 19  1  0
 19 20  1  0
 19 21  1  0
 21 22  1  0
 22  1  1  0
M  END
> <Smiles>
C1(c2c(OC(C)=CC3=O)c3c(O)cc2O)C(O)CN(C)CC1

> <IC50_uM>
0.977237221

> <pIC50>
6.01

> <Activity>
1

$$$$

  SciTegic10102310092D

 15 16  0  0  0  0            999 V2000
    1.2990   -0.7500    0.0000 C   0  0
    1.2990    0.7500    0.0000 C   0  0
    2.5981    1.5000    0.0000 Cl  0  0
    0.0000    1.5000    0.0000 C   0  0
   -1.2990    0.7500    0.0000 C   0  0
   -1.2990   -0.7500    0.0000 C   0  0
   -2.5972   -1.5031    0.0000 O   0  0
   -2.5951   -3.0039    0.0000 C   0  0
   -3.8933   -3.7570    0.0000 C   0  0
   -4.0312   -5.2379    0.0000 N   0  0
   -5.4984   -5.5497    0.0000 C   0  0
   -6.1085   -6.9201    0.0000 S   0  0
   -6.2484   -4.2507    0.0000 N   0  0
   -5.2447   -3.1360    0.0000 N   0  0
    0.0000   -1.5000    0.0000 C   0  0
  1  2  2  0
  2  3  1  0
  2  4  1  0
  4  5  2  0
  5  6  1  0
  6  7  1  0
  7  8  1  0
  8  9  1  0
  9 10  2  0
 10 11  1  0
 11 12  2  0
 11 13  1  0
 13 14  1  0
 14  9  1  0
  6 15  2  0
 15  1  1  0
M  END
> <Smiles>
c1c(Cl)ccc(OCC2=NC(=S)NN2)c1

> <IC50_uM>
0.977237221

> <pIC50>
6.01

> <Activity>
1

$$$$

  SciTegic10102310092D

 16 17  0  0  0  0            999 V2000
    0.7500   -1.0323    0.0000 N   0  0
    1.2135    0.3943    0.0000 C   0  0
    2.6394    0.8543    0.0000 S   0  0
    3.7533   -0.1515    0.0000 C   0  0
    5.2054    0.1699    0.0000 C   0  0
    5.8119    1.5398    0.0000 N   0  3
    4.9272    2.7512    0.0000 O   0  5
    7.3032    1.7008    0.0000 O   0  0
    5.9509   -1.1317    0.0000 N   0  0
    4.9433   -2.2430    0.0000 C   0  0
    3.5751   -1.6281    0.0000 N   0  0
    2.2690   -2.3658    0.0000 C   0  0
    0.0000    1.2760    0.0000 N   0  0
    0.0000    2.7760    0.0000 C   0  0
   -1.2135    0.3943    0.0000 N   0  0
   -0.7500   -1.0323    0.0000 N   0  0
  1  2  2  0
  2  3  1  0
  3  4  1  0
  4  5  2  0
  5  6  1  0
  6  7  1  0
  6  8  2  0
  5  9  1  0
  9 10  2  0
 10 11  1  0
 11  4  1  0
 11 12  1  0
  2 13  1  0
 13 14  1  0
 13 15  1  0
 15 16  2  0
 16  1  1  0
M  CHG  2   6   1   7  -1
M  END
> <Smiles>
n1c(Sc2c([N+]([O-])=O)ncn2C)n(C)nn1

> <IC50_uM>
0.977237221

> <pIC50>
6.01

> <Activity>
1

$$$$

  SciTegic10102310092D

 15 16  0  0  0  0            999 V2000
    0.7500   -1.0323    0.0000 N   0  0
    1.2135    0.3943    0.0000 C   0  0
    2.6375    0.8603    0.0000 S   0  0
    2.9474    2.3287    0.0000 C   0  0
    4.3111    2.9223    0.0000 C   0  0
    5.6070    2.1705    0.0000 N   0  3
    5.6033    0.6705    0.0000 O   0  5
    6.9081    2.9168    0.0000 O   0  0
    4.1491    4.4135    0.0000 N   0  0
    2.6808    4.7202    0.0000 C   0  0
    1.9353    3.4185    0.0000 N   0  0
    0.4451    3.2477    0.0000 C   0  0
    0.0000    1.2760    0.0000 S   0  0
   -1.2135    0.3943    0.0000 C   0  0
   -0.7500   -1.0323    0.0000 C   0  0
  1  2  2  0
  2  3  1  0
  3  4  1  0
  4  5  2  0
  5  6  1  0
  6  7  1  0
  6  8  2  0
  5  9  1  0
  9 10  2  0
 10 11  1  0
 11  4  1  0
 11 12  1  0
  2 13  1  0
 13 14  1  0
 14 15  1  0
 15  1  1  0
M  CHG  2   6   1   7  -1
M  END
> <Smiles>
N1=C(Sc2c([N+]([O-])=O)ncn2C)SCC1

> <IC50_uM>
0.977237221

> <pIC50>
6.01

> <Activity>
1

$$$$

  SciTegic10102310092D

 16 16  0  0  0  0            999 V2000
    1.2830   -6.2026    0.0000 O   0  0
    2.1626   -7.4186    0.0000 C   0  0
    1.5505   -8.7881    0.0000 C   0  0
    1.8954   -4.8324    0.0000 C   0  0
    3.3874   -4.6783    0.0000 O   0  0
    1.0157   -3.6164    0.0000 C   0  0
    1.6281   -2.2462    0.0000 S   0  0
    0.7500   -1.0323    0.0000 C   0  0
    1.2135    0.3943    0.0000 C   0  0
    2.6375    0.8603    0.0000 N   0  3
    3.7540   -0.1415    0.0000 O   0  5
    2.9472    2.3279    0.0000 O   0  0
    0.0000    1.2760    0.0000 N   0  0
   -1.2135    0.3943    0.0000 C   0  0
   -0.7500   -1.0323    0.0000 N   0  0
   -1.6317   -2.2458    0.0000 C   0  0
  1  2  1  0
  2  3  1  0
  1  4  1  0
  4  5  2  0
  4  6  1  0
  6  7  1  0
  7  8  1  0
  8  9  2  0
  9 10  1  0
 10 11  1  0
 10 12  2  0
  9 13  1  0
 13 14  2  0
 14 15  1  0
 15  8  1  0
 15 16  1  0
M  CHG  2  10   1  11  -1
M  END
> <Smiles>
O(CC)C(=O)CSc1c([N+]([O-])=O)ncn1C

> <IC50_uM>
0.977237221

> <pIC50>
6.01

> <Activity>
1

$$$$

  SciTegic10102310092D

 12 11  0  0  0  0            999 V2000
    9.0999    0.7500    0.0000 N   0  0
    7.7999    0.0000    0.0000 C   0  0
    6.5000    0.7500    0.0000 C   0  0
    5.2000    0.0000    0.0000 C   0  0
    3.9000    0.7500    0.0000 C   0  0
    2.6000    0.0000    0.0000 C   0  0
    1.3000    0.7500    0.0000 N   0  0
    0.0007    0.0004    0.0000 C   0  0
    1.3000    2.2500    0.0000 C   0  0
    5.2000   -1.5000    0.0000 O   0  0
   10.3992    0.0004    0.0000 C   0  0
    9.0999    2.2500    0.0000 C   0  0
  1  2  1  0
  2  3  1  0
  3  4  1  0
  4  5  1  0
  5  6  1  0
  6  7  1  0
  7  8  1  0
  7  9  1  0
  4 10  2  0
  1 11  1  0
  1 12  1  0
M  END
> <Smiles>
N(CCC(CCN(C)C)=O)(C)C

> <IC50_uM>
0.977237221

> <pIC50>
6.01

> <Activity>
1

$$$$

  SciTegic10102310092D

 17 18  0  0  0  0            999 V2000
    1.2990   -0.7500    0.0000 C   0  0
    1.2990    0.7500    0.0000 C   0  0
    0.0000    1.5000    0.0000 C   0  0  3  0  0  0
    0.0000    3.0008    0.0000 N   0  0
   -1.3002    3.7488    0.0000 C   0  0
   -1.3026    5.2488    0.0000 C   0  0
   -2.6029    5.9967    0.0000 F   0  0
   -0.0048    6.0009    0.0000 C   0  0
   -0.0072    7.5009    0.0000 O   0  0
    1.2954    5.2529    0.0000 N   0  0
    1.2978    3.7529    0.0000 C   0  0
    2.5981    3.0050    0.0000 O   0  0
   -1.2990    0.7500    0.0000 O   0  0
   -1.2990   -0.7500    0.0000 C   0  0  3  0  0  0
    0.0000   -1.5000    0.0000 C   0  0  3  0  0  0
    0.0000   -3.0000    0.0000 O   0  0
   -2.5981   -1.5000    0.0000 C   0  0
  1  2  2  0
  2  3  1  0
  3  4  1  4
  4  5  1  0
  5  6  2  0
  6  7  1  0
  6  8  1  0
  8  9  2  0
  8 10  1  0
 10 11  1  0
 11  4  1  0
 11 12  2  0
  3 13  1  0
 13 14  1  0
 14 15  1  0
 15  1  1  0
 15 16  1  4
 14 17  1  4
M  END
> <Smiles>
C1=CC(N2C=C(F)C(=O)NC2=O)OC(C1O)C

> <IC50_uM>
0.977237221

> <pIC50>
6.01

> <Activity>
1

$$$$

  SciTegic10102310092D

 12 11  0  0  0  0            999 V2000
    1.3000    0.7500    0.0000 C   0  0
    0.0007    0.0004    0.0000 C   0  0
    1.3000    2.2500    0.0000 C   0  0
    2.6000    0.0000    0.0000 C   0  0  3  0  0  0
    3.9000    0.7500    0.0000 C   0  0
    5.2000    0.0000    0.0000 C   0  0  3  0  0  0
    6.5000    0.7500    0.0000 C   0  0
    7.7992    0.0004    0.0000 C   0  0
    6.5000    2.2500    0.0000 C   0  0
    5.2000   -1.5000    0.0000 O   0  0
    3.9000    2.2500    0.0000 O   0  0
    2.6000   -1.5000    0.0000 O   0  0
  1  2  1  0
  1  3  1  0
  1  4  1  0
  4  5  1  0
  5  6  1  0
  6  7  1  0
  7  8  1  0
  7  9  1  0
  6 10  1  4
  5 11  2  0
  4 12  1  4
M  END
> <Smiles>
C(C)(C)C(C(C(C(C)C)O)=O)O

> <IC50_uM>
0.977237221

> <pIC50>
6.01

> <Activity>
1

$$$$

  SciTegic10102310092D

 17 18  0  0  0  0            999 V2000
    1.2990   -0.7500    0.0000 C   0  0  3  0  0  0
    2.5981   -1.5000    0.0000 C   0  0
    1.2990    0.7500    0.0000 C   0  0  3  0  0  0
    2.5981    1.5000    0.0000 O   0  0
    0.0000    1.5000    0.0000 C   0  0
   -1.2990    0.7500    0.0000 C   0  0
   -1.2990   -0.7500    0.0000 C   0  0  3  0  0  0
   -2.5987   -1.5004    0.0000 N   0  0
   -3.8991   -0.7525    0.0000 C   0  0
   -3.9015    0.7475    0.0000 O   0  0
   -5.1969   -1.5046    0.0000 N   0  0
   -5.1945   -3.0046    0.0000 C   0  0
   -6.4924   -3.7566    0.0000 O   0  0
   -3.8943   -3.7525    0.0000 C   0  0
   -3.8919   -5.2525    0.0000 F   0  0
   -2.5964   -3.0004    0.0000 C   0  0
    0.0000   -1.5000    0.0000 O   0  0
  1  2  1  4
  1  3  1  0
  3  4  1  4
  3  5  1  0
  5  6  1  0
  6  7  1  0
  7  8  1  4
  8  9  1  0
  9 10  2  0
  9 11  1  0
 11 12  1  0
 12 13  2  0
 12 14  1  0
 14 15  1  0
 14 16  2  0
 16  8  1  0
  7 17  1  0
 17  1  1  0
M  END
> <Smiles>
C1(C)C(O)CCC(N2C(=O)NC(=O)C(F)=C2)O1

> <IC50_uM>
0.977237221

> <pIC50>
6.01

> <Activity>
1

$$$$

  SciTegic10102310092D

 17 17  0  0  0  0            999 V2000
    1.2990   -0.7500    0.0000 C   0  0
    1.2990    0.7500    0.0000 N   0  0
    2.5972    1.5031    0.0000 C   0  0
    2.5951    3.0039    0.0000 C   0  0
    3.8933    3.7570    0.0000 C   0  0
    3.8912    5.2578    0.0000 N   0  0
    5.1894    6.0109    0.0000 C   0  0
    5.1872    7.5118    0.0000 C   0  0
    6.4854    8.2649    0.0000 O   0  0
    6.4833    9.7657    0.0000 C   0  0
    7.7807   10.5184    0.0000 C   0  0
    3.8869    8.2595    0.0000 O   0  0
    6.4897    5.2632    0.0000 O   0  0
    0.0000    1.5000    0.0000 C   0  0
   -1.2990    0.7500    0.0000 C   0  0
   -1.2990   -0.7500    0.0000 O   0  0
    0.0000   -1.5000    0.0000 C   0  0
  1  2  1  0
  2  3  1  0
  3  4  1  0
  4  5  1  0
  5  6  1  0
  6  7  1  0
  7  8  1  0
  8  9  1  0
  9 10  1  0
 10 11  1  0
  8 12  2  0
  7 13  2  0
  2 14  1  0
 14 15  1  0
 15 16  1  0
 16 17  1  0
 17  1  1  0
M  END
> <Smiles>
C1N(CCCNC(C(OCC)=O)=O)CCOC1

> <IC50_uM>
0.977237221

> <pIC50>
6.01

> <Activity>
1

$$$$

  SciTegic10102310092D

 17 17  0  0  0  0            999 V2000
    1.2990   -0.7500    0.0000 C   0  0
    1.2990    0.7500    0.0000 C   0  0
    2.6003    1.4978    0.0000 C   0  0
    3.8990    0.7455    0.0000 C   0  0
    3.8964   -0.7545    0.0000 O   0  0
    5.1996    1.4928    0.0000 O   0  0
    0.0000    1.5000    0.0000 C   0  0
   -0.0031    3.0008    0.0000 N   0  3
    1.2946    3.7531    0.0000 O   0  5
   -1.3032    3.7490    0.0000 O   0  0
   -1.2990    0.7500    0.0000 C   0  0
   -1.2990   -0.7500    0.0000 C   0  0
   -2.6003   -1.4978    0.0000 O   0  0
   -3.8983   -0.7459    0.0000 C   0  0
    0.0000   -1.5000    0.0000 C   0  0
    0.0031   -3.0008    0.0000 O   0  0
    1.3032   -3.7490    0.0000 C   0  0
  1  2  2  0
  2  3  1  0
  3  4  1  0
  4  5  1  0
  4  6  2  0
  2  7  1  0
  7  8  1  0
  8  9  1  0
  8 10  2  0
  7 11  2  0
 11 12  1  0
 12 13  1  0
 13 14  1  0
 12 15  2  0
 15  1  1  0
 15 16  1  0
 16 17  1  0
M  CHG  2   8   1   9  -1
M  END
> <Smiles>
c1c(CC(O)=O)c([N+]([O-])=O)cc(OC)c1OC

> <IC50_uM>
0.977237221

> <pIC50>
6.01

> <Activity>
1

$$$$

  SciTegic10102310092D

 17 17  0  0  0  0            999 V2000
    1.2990   -0.7500    0.0000 C   0  0
    1.2990    0.7500    0.0000 C   0  0  3  0  0  0
    2.5981    1.5000    0.0000 O   0  0
    0.0000    1.5000    0.0000 C   0  0  3  0  0  0
   -0.0031    3.0008    0.0000 C   0  0
   -1.3039    3.7494    0.0000 C   0  0
   -1.3070    5.2502    0.0000 C   0  0
   -2.6078    5.9988    0.0000 C   0  0
   -2.6109    7.4996    0.0000 C   0  0
   -3.9118    8.2481    0.0000 O   0  0
   -3.9149    9.7481    0.0000 C   0  0
   -1.3132    8.2519    0.0000 O   0  0
   -0.0093    6.0025    0.0000 C   0  0
   -1.2990    0.7500    0.0000 O   0  0
   -1.2990   -0.7500    0.0000 C   0  0  3  0  0  0
   -2.5981   -1.5000    0.0000 C   0  0
    0.0000   -1.5000    0.0000 O   0  0
  1  2  1  0
  2  3  1  4
  2  4  1  0
  4  5  1  4
  5  6  2  0
  6  7  1  0
  7  8  2  0
  8  9  1  0
  9 10  1  0
 10 11  1  0
  9 12  2  0
  7 13  1  0
  4 14  1  0
 14 15  1  0
 15 16  1  4
 15 17  1  0
 17  1  1  0
M  END
> <Smiles>
C1C(O)C(\C=C\C(=C\C(OC)=O)\C)OC(C)O1

> <IC50_uM>
0.977237221

> <pIC50>
6.01

> <Activity>
1

$$$$

  SciTegic10102310092D

 16 19  0  0  0  0            999 V2000
    1.2990   -0.7500    0.0000 C   0  0
    1.2990    0.7500    0.0000 C   0  0
    0.0000    1.5000    0.0000 C   0  0
   -0.3115    2.9665    0.0000 N   0  0
   -1.8032    3.1233    0.0000 C   0  0
   -2.9161    4.1261    0.0000 C   0  0
   -4.2151    3.3761    0.0000 C   0  0
   -3.9032    1.9089    0.0000 N   0  0
   -5.5135    4.1250    0.0000 C   0  0
   -5.5135    5.6250    0.0000 C   0  0
   -4.2145    6.3750    0.0000 C   0  0
   -2.9154    5.6250    0.0000 C   0  0
   -2.4133    1.7530    0.0000 C   0  0
   -1.2990    0.7500    0.0000 N   0  0
   -1.2990   -0.7500    0.0000 C   0  0
    0.0000   -1.5000    0.0000 C   0  0
  1  2  2  0
  2  3  1  0
  3  4  2  0
  4  5  1  0
  5  6  1  0
  6  7  2  0
  7  8  1  0
  7  9  1  0
  9 10  2  0
 10 11  1  0
 11 12  2  0
 12  6  1  0
  5 13  2  0
 13  8  1  0
  3 14  1  0
 14 13  1  0
 14 15  1  0
 15 16  2  0
 16  1  1  0
M  END
> <Smiles>
c1cc(nc(c2c([nH]3)cccc2)c34)n4cc1

> <IC50_uM>
0.977237221

> <pIC50>
6.01

> <Activity>
1

$$$$

  SciTegic10102310092D

 18 19  0  0  0  0            999 V2000
    1.2990   -0.7500    0.0000 C   0  0
    2.5973   -1.5031    0.0000 N   0  0
    3.8976   -0.7553    0.0000 C   0  0
    2.5951   -3.0039    0.0000 C   0  0
    1.2948   -3.7516    0.0000 C   0  0
    3.8926   -3.7566    0.0000 O   0  0
    1.2990    0.7500    0.0000 C   0  0
    2.6003    1.4978    0.0000 N   0  3
    2.6029    2.9978    0.0000 O   0  5
    3.8983    0.7459    0.0000 O   0  0
    0.0000    1.5000    0.0000 C   0  0
   -1.2990    0.7500    0.0000 C   0  0
   -2.5981    1.5000    0.0000 N   0  0
   -2.5981    3.0000    0.0000 C   0  0
   -1.2991    3.7500    0.0000 C   0  0
    0.0000    3.0000    0.0000 C   0  0
   -1.2990   -0.7500    0.0000 C   0  0
    0.0000   -1.5000    0.0000 C   0  0
  1  2  1  0
  2  3  1  0
  2  4  1  0
  4  5  1  0
  4  6  2  0
  1  7  2  0
  7  8  1  0
  8  9  1  0
  8 10  2  0
  7 11  1  0
 11 12  2  0
 12 13  1  0
 13 14  2  0
 14 15  1  0
 15 16  2  0
 16 11  1  0
 12 17  1  0
 17 18  2  0
 18  1  1  0
M  CHG  2   8   1   9  -1
M  END
> <Smiles>
c1(N(C)C(C)=O)c([N+]([O-])=O)c2c(nccc2)cc1

> <IC50_uM>
0.977237221

> <pIC50>
6.01

> <Activity>
1

$$$$

  SciTegic10102310092D

 17 18  0  0  0  0            999 V2000
    0.7500   -1.0323    0.0000 O   0  0
    1.2135    0.3943    0.0000 C   0  0  3  0  0  0
    2.6408    0.8581    0.0000 C   0  0
    3.8950    0.0676    0.0000 O   0  0
    5.0358    1.0415    0.0000 C   0  0
    4.4621    2.4275    0.0000 C   0  0
    5.2426    3.7064    0.0000 C   0  0
    6.7421    3.6694    0.0000 N   0  0
    4.5253    5.0238    0.0000 O   0  0
    2.9667    2.3101    0.0000 N   0  0
    0.0000    1.2760    0.0000 C   0  0  3  0  0  0
    0.0000    2.7760    0.0000 O   0  0
   -1.2135    0.3943    0.0000 C   0  0  3  0  0  0
   -2.6401    0.8578    0.0000 O   0  0
   -0.7500   -1.0323    0.0000 C   0  0  3  0  0  0
   -1.6281   -2.2462    0.0000 C   0  0
   -1.0160   -3.6157    0.0000 O   0  0
  1  2  1  0
  2  3  1  4
  3  4  1  0
  4  5  1  0
  5  6  2  0
  6  7  1  0
  7  8  1  0
  7  9  2  0
  6 10  1  0
 10  3  2  0
  2 11  1  0
 11 12  1  4
 11 13  1  0
 13 14  1  4
 13 15  1  0
 15  1  1  0
 15 16  1  4
 16 17  1  0
M  END
> <Smiles>
O1C(c2occ(C(N)=O)n2)C(O)C(O)C1CO

> <IC50_uM>
0.977237221

> <pIC50>
6.01

> <Activity>
1

$$$$

  SciTegic10102310092D

 16 17  0  0  0  0            999 V2000
    1.2990   -0.7500    0.0000 C   0  0
    1.2990    0.7500    0.0000 C   0  0  3  0  0  0
    2.5987    1.5004    0.0000 N   0  0
    2.5964    3.0005    0.0000 C   0  0
    3.8943    3.7525    0.0000 C   0  0
    5.1945    3.0046    0.0000 C   0  0
    6.4924    3.7566    0.0000 O   0  0
    5.1969    1.5046    0.0000 N   0  0
    3.8990    0.7525    0.0000 C   0  0
    3.9015   -0.7475    0.0000 O   0  0
    0.0000    1.5000    0.0000 C   0  0
   -1.2990    0.7500    0.0000 S   0  0
   -1.2990   -0.7500    0.0000 C   0  0
    0.0000   -1.5000    0.0000 C   0  0  3  0  0  0
    0.0031   -3.0008    0.0000 C   0  0
    1.3032   -3.7490    0.0000 O   0  0
  1  2  1  0
  2  3  1  4
  3  4  1  0
  4  5  2  0
  5  6  1  0
  6  7  2  0
  6  8  1  0
  8  9  1  0
  9  3  1  0
  9 10  2  0
  2 11  1  0
 11 12  1  0
 12 13  1  0
 13 14  1  0
 14  1  1  0
 14 15  1  4
 15 16  1  0
M  END
> <Smiles>
C1C(N2C=CC(=O)NC2=O)CSCC1CO

> <IC50_uM>
0.977237221

> <pIC50>
6.01

> <Activity>
1

$$$$

  SciTegic10102310092D

 13 14  0  0  0  0            999 V2000
    1.6852   -0.3846    0.0000 C   0  0
    3.1476   -0.7184    0.0000 O   0  0
    1.3514    1.0778    0.0000 C   0  0
    2.5913    1.9239    0.0000 C   0  0
    2.4792    3.4197    0.0000 C   0  0
    1.1278    4.0705    0.0000 C   0  0
   -0.1116    3.2255    0.0000 C   0  0
    0.0000    1.7286    0.0000 C   0  0
   -1.3515    1.0777    0.0000 N   0  0
   -1.6852   -0.3847    0.0000 C   0  0
   -3.1476   -0.7184    0.0000 O   0  0
   -0.7500   -1.5574    0.0000 C   0  0
    0.7500   -1.5574    0.0000 C   0  0
  1  2  2  0
  1  3  1  0
  3  4  2  0
  4  5  1  0
  5  6  2  0
  6  7  1  0
  3  8  1  0
  8  7  2  0
  8  9  1  0
  9 10  1  0
 10 11  2  0
 10 12  1  0
 12 13  1  0
 13  1  1  0
M  END
> <Smiles>
C1(=O)c(cccc2)c2NC(=O)CC1

> <IC50_uM>
0.977237221

> <pIC50>
6.01

> <Activity>
1

$$$$

  SciTegic10102310092D

 17 19  0  0  0  0            999 V2000
    1.2990   -0.7500    0.0000 C   0  0
    1.2990    0.7500    0.0000 C   0  0
    2.4133    1.7530    0.0000 C   0  0
    1.8032    3.1233    0.0000 C   0  0
    0.3114    2.9665    0.0000 S   0  0
    2.9160    4.1261    0.0000 N   0  0
    4.2150    3.3762    0.0000 C   0  0
    3.9032    1.9089    0.0000 N   0  0
    4.9075    0.7971    0.0000 C   0  0
    6.3752    1.1105    0.0000 C   0  0
    7.3812   -0.0032    0.0000 N   0  0
    8.8482    0.3101    0.0000 C   0  0
    6.9195   -1.4304    0.0000 C   0  0
    0.0000    1.5000    0.0000 C   0  0
   -1.2990    0.7500    0.0000 C   0  0
   -1.2990   -0.7500    0.0000 C   0  0
    0.0000   -1.5000    0.0000 C   0  0
  1  2  2  0
  2  3  1  0
  3  4  2  0
  4  5  1  0
  4  6  1  0
  6  7  2  0
  7  8  1  0
  8  3  1  0
  8  9  1  0
  9 10  1  0
 10 11  1  0
 11 12  1  0
 11 13  1  0
  2 14  1  0
 14  5  1  0
 14 15  2  0
 15 16  1  0
 16 17  2  0
 17  1  1  0
M  END
> <Smiles>
c1c(c2c(s3)ncn2CCN(C)C)c3ccc1

> <IC50_uM>
0.977237221

> <pIC50>
6.01

> <Activity>
1

$$$$

  SciTegic10102310092D

 18 19  0  0  0  0            999 V2000
    1.2990   -0.7500    0.0000 C   0  0
    2.5973   -1.5031    0.0000 C   0  0
    2.5951   -3.0039    0.0000 O   0  0
    3.8926   -3.7566    0.0000 C   0  0
    3.8976   -0.7553    0.0000 O   0  0
    1.2990    0.7500    0.0000 C   0  0
    0.0000    1.5000    0.0000 C   0  0
   -1.2990    0.7500    0.0000 C   0  0
   -2.6003    1.4977    0.0000 C   0  0
   -3.8990    0.7455    0.0000 C   0  0
   -5.2526    1.3618    0.0000 C   0  0
   -5.5608    2.8298    0.0000 O   0  0
   -6.2524    0.2436    0.0000 O   0  0
   -4.0317   -0.7359    0.0000 N   0  0
   -5.4979   -1.0529    0.0000 C   0  0
   -6.1032   -2.4253    0.0000 C   0  0
   -1.2990   -0.7500    0.0000 C   0  0
    0.0000   -1.5000    0.0000 C   0  0
  1  2  1  0
  2  3  1  0
  3  4  1  0
  2  5  2  0
  1  6  2  0
  6  7  1  0
  7  8  2  0
  8  9  1  0
  9 10  2  0
 10 11  1  0
 11 12  2  0
 11 13  1  0
 10 14  1  0
 14 15  2  0
 15 13  1  0
 15 16  1  0
  8 17  1  0
 17 18  2  0
 18  1  1  0
M  END
> <Smiles>
c1(C(OC)=O)ccc(\C=C(\C(=O)O2)/N=C2C)cc1

> <IC50_uM>
0.977237221

> <pIC50>
6.01

> <Activity>
1

$$$$

  SciTegic10102310092D

 15 16  0  0  0  0            999 V2000
    2.5951   -3.0031    0.0000 C   0  0
    2.5973   -1.5031    0.0000 O   0  0
    1.2990   -0.7500    0.0000 C   0  0
    1.2990    0.7500    0.0000 C   0  0
    0.0000    1.5000    0.0000 C   0  0
   -0.3115    2.9665    0.0000 C   0  0  3  0  0  0
    0.6890    4.0818    0.0000 C   0  0
    0.2234    5.5086    0.0000 C   0  0
    1.2250    6.6252    0.0000 N   0  0
   -1.8032    3.1233    0.0000 C   0  0
   -2.4133    1.7530    0.0000 N   0  0
   -2.5533    4.4223    0.0000 O   0  0
   -1.2990    0.7500    0.0000 C   0  0
   -1.2990   -0.7500    0.0000 C   0  0
    0.0000   -1.5000    0.0000 C   0  0
  1  2  1  0
  2  3  1  0
  3  4  2  0
  4  5  1  0
  5  6  1  0
  6  7  1  4
  7  8  1  0
  8  9  1  0
  6 10  1  0
 10 11  1  0
 10 12  2  0
  5 13  2  0
 13 11  1  0
 13 14  1  0
 14 15  2  0
 15  3  1  0
M  END
> <Smiles>
COc1cc(C(CCN)C(N2)=O)c2cc1

> <IC50_uM>
0.977237221

> <pIC50>
6.01

> <Activity>
1

$$$$

  SciTegic10102310092D

 18 20  0  0  0  0            999 V2000
    2.5981   -1.5000    0.0000 O   0  0
    1.2990   -0.7500    0.0000 C   0  0
    1.2990    0.7500    0.0000 C   0  0
    2.4133    1.7530    0.0000 C   0  0
    1.8032    3.1233    0.0000 N   0  0
    0.3114    2.9665    0.0000 N   0  0
    2.5496    4.4224    0.0000 C   0  0
    1.7973    5.7210    0.0000 C   0  0
    2.5427    7.0228    0.0000 C   0  0
    1.7882    8.3192    0.0000 C   0  0
    0.2882    8.3139    0.0000 C   0  0
   -0.4573    7.0123    0.0000 C   0  0
    0.2973    5.7159    0.0000 C   0  0
    0.0000    1.5000    0.0000 C   0  0
   -1.2990    0.7500    0.0000 N   0  0
   -1.2990   -0.7500    0.0000 C   0  0
   -2.5981   -1.5000    0.0000 C   0  0
    0.0000   -1.5000    0.0000 O   0  0
  1  2  2  0
  2  3  1  0
  3  4  2  0
  4  5  1  0
  5  6  1  0
  5  7  1  0
  7  8  1  0
  8  9  2  0
  9 10  1  0
 10 11  2  0
 11 12  1  0
 12 13  2  0
 13  8  1  0
  3 14  1  0
 14  6  2  0
 14 15  1  0
 15 16  2  0
 16 17  1  0
 16 18  1  0
 18  2  1  0
M  END
> <Smiles>
O=C1c(cn(n2)Cc3ccccc3)c2N=C(C)O1

> <IC50_uM>
0.977237221

> <pIC50>
6.01

> <Activity>
1

$$$$

  SciTegic10102310092D

 18 20  0  0  0  0            999 V2000
    0.7500   -1.0323    0.0000 C   0  0
    1.2135    0.3943    0.0000 C   0  0  3  0  0  0
    2.4258    1.2743    0.0000 N   0  0
    1.9623    2.7009    0.0000 C   0  0
    2.8439    3.9144    0.0000 O   0  0
    0.4623    2.7009    0.0000 C   0  0  3  0  0  0
   -0.4201    3.9148    0.0000 C   0  0
    0.0839    5.3223    0.0000 C   0  0
   -0.8869    6.4658    0.0000 C   0  0
   -2.3626    6.1967    0.0000 C   0  0
   -3.3363    7.3388    0.0000 C   0  0
   -2.8339    8.7522    0.0000 O   0  0
   -4.8116    7.0677    0.0000 O   0  0
   -2.8675    4.7842    0.0000 C   0  0
   -1.8966    3.6408    0.0000 C   0  0
    0.0000    1.2760    0.0000 C   0  0  3  0  0  0
   -1.2135    0.3943    0.0000 C   0  0
   -0.7500   -1.0323    0.0000 C   0  0
  2  1  1  4
  2  3  1  0
  3  4  1  0
  4  5  2  0
  4  6  1  0
  6  7  1  4
  7  8  2  0
  8  9  1  0
  9 10  2  0
 10 11  1  0
 11 12  1  0
 11 13  2  0
 10 14  1  0
 14 15  2  0
 15  7  1  0
  2 16  1  0
 16  6  1  0
 16 17  1  4
 17 18  1  0
 18  1  1  0
M  END
> <Smiles>
C1C(NC(=O)C2c3ccc(C(O)=O)cc3)C2CC1

> <IC50_uM>
0.977237221

> <pIC50>
6.01

> <Activity>
1

$$$$

  SciTegic10102310092D

 18 20  0  0  0  0            999 V2000
    1.2935   -3.7495    0.0000 C   0  0
    1.2883   -5.2495    0.0000 C   0  0
    2.5847   -6.0040    0.0000 C   0  0
    3.8864   -5.2585    0.0000 C   0  0
    3.8915   -3.7585    0.0000 C   0  0
    2.5951   -3.0039    0.0000 C   0  0
    2.5973   -1.5031    0.0000 C   0  0
    1.2990   -0.7500    0.0000 C   0  0  3  0  0  0
    1.2990    0.7500    0.0000 C   0  0
    2.5981    1.5000    0.0000 O   0  0
    0.0000    1.5000    0.0000 N   0  0
   -0.3115    2.9665    0.0000 C   0  0
   -1.8032    3.1233    0.0000 C   0  0
   -2.4133    1.7530    0.0000 C   0  0
   -1.2990    0.7500    0.0000 C   0  0  3  0  0  0
   -1.2990   -0.7500    0.0000 C   0  0
   -2.5981   -1.5000    0.0000 O   0  0
    0.0000   -1.5000    0.0000 N   0  0
  1  2  2  0
  2  3  1  0
  3  4  2  0
  4  5  1  0
  5  6  2  0
  6  1  1  0
  6  7  1  0
  8  7  1  4
  8  9  1  0
  9 10  2  0
  9 11  1  0
 11 12  1  0
 12 13  1  0
 13 14  1  0
 11 15  1  0
 15 14  1  4
 15 16  1  0
 16 17  2  0
 16 18  1  0
 18  8  1  0
M  END
> <Smiles>
c1ccccc1CC2C(=O)N(CCC3)C3C(=O)N2

> <IC50_uM>
0.977237221

> <pIC50>
6.01

> <Activity>
1

$$$$

  SciTegic10102310092D

 16 17  0  0  0  0            999 V2000
    1.6421    0.6933    0.0000 C   0  0  3  0  0  0
    2.6103    1.8328    0.0000 O   0  0
    4.0867    1.5634    0.0000 S   0  0
    4.5909    0.1506    0.0000 C   0  0
    5.0585    2.7061    0.0000 O   0  0
    5.5622    1.2934    0.0000 O   0  0
    0.0000    0.6568    0.0000 C   0  0  3  0  0  0
   -0.6568   -0.6386    0.0000 C   0  0
   -1.8063   -1.3319    0.0000 C   0  0
   -1.0947    1.4779    0.0000 C   0  0
   -1.8778    2.7573    0.0000 O   0  0
   -0.8393    0.0000    0.0000 C   0  0  3  0  0  0
   -0.2742   -1.3912    0.0000 C   0  0
    0.2851   -2.7830    0.0000 N   0  0
    0.9488    0.0000    0.0000 C   0  0
    1.8975   -0.8028    0.0000 C   0  0
  1  2  1  4
  2  3  1  0
  3  4  1  0
  3  5  2  0
  3  6  2  0
  1  7  1  0
  7  8  1  4
  8  9  1  0
  7 10  1  0
 10 11  2  0
 10 12  1  0
 12  9  1  0
 12 13  1  4
 13 14  3  0
 12 15  1  0
 15 16  1  0
 16  1  1  0
M  END
> <Smiles>
C1(OS(C)(=O)=O)C(CC2)C(=O)C2(C#N)CC1

> <IC50_uM>
0.977237221

> <pIC50>
6.01

> <Activity>
1

$$$$

  SciTegic10102310092D

 17 17  0  0  0  0            999 V2000
    1.2990   -0.7500    0.0000 C   0  0  3  0  0  0
    1.7713   -2.1535    0.0000 C   0  0
    3.2491   -2.4152    0.0000 O   0  0
    3.7620   -3.8248    0.0000 C   0  0
    0.8066   -3.3021    0.0000 O   0  0
    2.5625    0.0216    0.0000 C   0  0  3  0  0  0
    3.8615   -0.7286    0.0000 C   0  0
    2.5631    1.5224    0.0000 C   0  0
    3.8627    2.2731    0.0000 C   0  0
    5.1617    1.5229    0.0000 O   0  0
    3.8634    3.7731    0.0000 O   0  0
    1.2990    0.7500    0.0000 C   0  0
    0.0000    1.5000    0.0000 C   0  0
   -1.2990    0.7500    0.0000 C   0  0
   -1.2990   -0.7500    0.0000 C   0  0
    0.0000   -1.5000    0.0000 C   0  0
    0.0000   -3.0000    0.0000 O   0  0
  1  2  1  4
  2  3  1  0
  3  4  1  0
  2  5  2  0
  1  6  1  0
  6  7  1  4
  6  8  1  0
  8  9  1  0
  9 10  1  0
  9 11  2  0
  1 12  1  0
 12 13  1  0
 13 14  1  0
 14 15  1  0
 15 16  1  0
 16  1  1  0
 16 17  2  0
M  END
> <Smiles>
C1(C(OC)=O)(C(C)CC(O)=O)CCCCC1=O

> <IC50_uM>
0.977237221

> <pIC50>
6.01

> <Activity>
1

$$$$

  SciTegic10102310092D

 17 17  0  0  0  0            999 V2000
    0.7500   -1.0323    0.0000 C   0  0
    1.2135    0.3943    0.0000 C   0  0
    0.0000    1.2760    0.0000 C   0  0
   -1.2135    0.3943    0.0000 C   0  0
   -2.1646    0.7033    0.0000 O   0  0
   -0.7500   -1.0323    0.0000 C   0  0  3  0  0  0
   -0.1234   -2.3817    0.0000 C   0  0
   -1.0046   -3.5966    0.0000 O   0  0
   -0.3944   -4.9668    0.0000 C   0  0
    1.3685   -2.5379    0.0000 O   0  0
   -2.2267   -0.8532    0.0000 C   0  0
   -2.8377    0.5177    0.0000 C   0  0
   -4.3302    0.6749    0.0000 C   0  0
   -4.9412    2.0457    0.0000 O   0  0
   -6.4338    2.2029    0.0000 C   0  0
   -7.0445    3.5730    0.0000 C   0  0
   -5.2118   -0.5387    0.0000 O   0  0
  1  2  1  0
  2  3  1  0
  3  4  1  0
  4  5  2  0
  4  6  1  0
  6  1  1  0
  6  7  1  0
  7  8  1  0
  8  9  1  0
  7 10  2  0
  6 11  1  4
 11 12  1  0
 12 13  1  0
 13 14  1  0
 14 15  1  0
 15 16  1  0
 13 17  2  0
M  END
> <Smiles>
C1CCC(=O)C1(C(OC)=O)CCC(OCC)=O

> <IC50_uM>
0.977237221

> <pIC50>
6.01

> <Activity>
1

$$$$

  SciTegic10102310092D

 18 20  0  0  0  0            999 V2000
    1.2990   -0.7500    0.0000 C   0  0
    1.2990    0.7500    0.0000 C   0  0
    2.5981    1.5000    0.0000 F   0  0
    0.0000    1.5000    0.0000 C   0  0
   -1.2990    0.7500    0.0000 C   0  0
   -1.2990   -0.7500    0.0000 C   0  0
   -2.7248   -1.2135    0.0000 C   0  0
   -3.6065    0.0000    0.0000 C   0  0
   -2.7248    1.2135    0.0000 N   0  0
   -5.1065    0.0000    0.0000 O   0  0
   -3.1884   -2.6409    0.0000 C   0  0
   -4.6773   -2.8370    0.0000 C   0  0
   -5.2468   -4.2247    0.0000 C   0  0
   -4.3298   -5.4118    0.0000 C   0  0
   -2.8432   -5.2111    0.0000 C   0  0
   -2.2737   -3.8234    0.0000 C   0  0
   -0.7873   -3.6224    0.0000 O   0  0
    0.0000   -1.5000    0.0000 C   0  0
  1  2  2  0
  2  3  1  0
  2  4  1  0
  4  5  2  0
  5  6  1  0
  6  7  1  0
  7  8  1  0
  8  9  1  0
  9  5  1  0
  8 10  2  0
  7 11  2  0
 11 12  1  0
 12 13  1  0
 13 14  1  0
 14 15  1  0
 11 16  1  0
 16 15  1  0
 16 17  2  0
  6 18  2  0
 18  1  1  0
M  END
> <Smiles>
c1c(F)cc2c(\C(\C(N2)=O)=C(\CCCC3)/C3=O)c1

> <IC50_uM>
0.977237221

> <pIC50>
6.01

> <Activity>
1

$$$$

  SciTegic10102310092D

 16 18  0  0  0  0            999 V2000
    6.5500    1.9201    0.0000 C   0  0  3  0  0  0
    6.9337    0.4653    0.0000 C   0  0
    8.3818    0.0743    0.0000 O   0  0
    5.8713   -0.5937    0.0000 O   0  0
    6.5321    3.3737    0.0000 C   0  0  3  0  0  0
    6.2808    1.5971    0.0000 C   0  0  3  0  0  0
    7.5549    0.8614    0.0000 C   0  0
    5.0247    0.8614    0.0000 C   0  0
    5.2400    4.1095    0.0000 C   0  0
    3.9659    3.3737    0.0000 C   0  0
    2.6640    4.1205    0.0000 P   0  0
    1.3673    3.3666    0.0000 O   0  0
    1.3626    4.8664    0.0000 O   0  0
    2.6590    5.6205    0.0000 O   0  0
    5.2580    1.1664    0.0000 C   0  0
    3.9838    1.8843    0.0000 C   0  0  3  0  0  0
  1  2  1  4
  2  3  1  0
  2  4  2  0
  1  5  1  0
  5  6  1  0
  6  7  1  4
  7  1  1  0
  6  8  1  0
  5  9  1  4
  9 10  2  0
 10 11  1  0
 11 12  1  0
 11 13  1  0
 11 14  2  0
  1 15  1  0
 16 15  1  4
 16  8  1  0
 16 10  1  0
M  END
> <Smiles>
C1(C(O)=O)(C(C(C1)C2)C=C3P(O)(O)=O)CC23

> <IC50_uM>
0.977237221

> <pIC50>
6.01

> <Activity>
1

$$$$

  SciTegic10102310092D

 19 21  0  0  0  0            999 V2000
   13.5018   -8.4297    0.0000 Sn  0  5
   13.2803   -7.4545    0.0000 C   0  0
   13.9899   -7.3335    0.0000 C   0  0
   13.5018   -9.4297    0.0000 N   0  3  3  0  0  0
   13.5018  -10.4297    0.0000 C   0  0
   12.5507   -9.7387    0.0000 C   0  0
   11.9630   -8.9297    0.0000 C   0  0
   10.9630   -8.9297    0.0000 O   0  0
   12.5508   -8.1207    0.0000 O   0  3
   14.4530   -9.7387    0.0000 C   0  0  3  0  0  0
   14.7621  -10.6897    0.0000 C   0  0
   15.0406   -8.9297    0.0000 C   0  0  3  0  0  0
   16.0406   -8.9297    0.0000 C   0  0
   16.5406   -8.0636    0.0000 C   0  0
   17.5406   -8.0636    0.0000 C   0  0
   18.0406   -8.9296    0.0000 C   0  0
   17.5406   -9.7956    0.0000 C   0  0
   16.5406   -9.7956    0.0000 C   0  0
   14.4529   -8.1207    0.0000 O   0  3
  1  2  1  0
  1  3  1  0
  1  4  1  0
  4  5  1  4
  4  6  1  0
  6  7  1  0
  7  8  2  0
  7  9  1  0
  9  1  1  0
  4 10  1  0
 10 11  1  4
 10 12  1  0
 12 13  1  4
 13 14  2  0
 14 15  1  0
 15 16  2  0
 16 17  1  0
 17 18  2  0
 18 13  1  0
 12 19  1  0
 19  1  1  0
M  CHG  4   1  -1   4   1   9   1  19   1
M  END
> <Smiles>
[Sn-]12(C)(C)[N+](C)(CC(=O)[OH+]1)C(C)C(c3ccccc3)[OH+]2

> <IC50_uM>
0.977237221

> <pIC50>
6.01

> <Activity>
1

$$$$

  SciTegic10102310092D

 17 18  0  0  0  0            999 V2000
    3.8056   -3.8679    0.0000 O   0  0
    2.5951   -3.0039    0.0000 C   0  0  3  0  0  0
    2.5973   -1.5031    0.0000 C   0  0
    1.2990   -0.7500    0.0000 N   0  0
    1.2990    0.7500    0.0000 C   0  0
    2.5981    1.5000    0.0000 O   0  0
    0.0000    1.5000    0.0000 N   0  0
   -1.2990    0.7500    0.0000 C   0  0
   -2.5981    1.5000    0.0000 O   0  0
   -1.2990   -0.7500    0.0000 C   0  0
   -2.5981   -1.5000    0.0000 C   0  0
    0.0000   -1.5000    0.0000 C   0  0
    1.3786   -3.8595    0.0000 C   0  0
    1.8372   -5.2877    0.0000 O   0  0
    3.3372   -5.2929    0.0000 C   0  0  3  0  0  0
    4.2161   -6.5063    0.0000 C   0  0
    5.7082   -6.3525    0.0000 O   0  0
  1  2  1  0
  2  3  1  4
  3  4  1  0
  4  5  1  0
  5  6  2  0
  5  7  1  0
  7  8  1  0
  8  9  2  0
  8 10  1  0
 10 11  1  0
 10 12  2  0
 12  4  1  0
  2 13  1  0
 13 14  1  0
 14 15  1  0
 15  1  1  0
 15 16  1  4
 16 17  1  0
M  END
> <Smiles>
O1C(CN2C(=O)NC(=O)C(C)=C2)COC1CO

> <IC50_uM>
0.977237221

> <pIC50>
6.01

> <Activity>
1

$$$$

  SciTegic10102310092D

 31 33  0  0  0  0            999 V2000
    2.5981   -1.5000    0.0000 C   0  0
    1.2990   -0.7500    0.0000 C   0  0
    1.2990    0.7500    0.0000 C   0  0
    0.0000    1.5000    0.0000 C   0  0
    0.0000    3.0008    0.0000 C   0  0
    0.0000    4.5008    0.0000 N   0  0
   -1.2990    0.7500    0.0000 C   0  0
   -1.2990   -0.7500    0.0000 C   0  0
   -2.5981   -1.5000    0.0000 C   0  0
    0.0000   -1.5000    0.0000 C   0  0
    0.0031   -3.0008    0.0000 O   0  0
    1.3039   -3.7494    0.0000 C   0  0
    1.3092   -5.2494    0.0000 C   0  0
    2.6108   -5.9949    0.0000 C   0  0
    3.9073   -5.2404    0.0000 N   0  0
    3.9021   -3.7404    0.0000 C   0  0
    5.1992   -2.9855    0.0000 S   0  0
    5.1936   -1.4855    0.0000 O   0  0
    6.4953   -2.2304    0.0000 O   0  0
    6.5020   -3.7306    0.0000 C   0  0
    7.7992   -2.9757    0.0000 C   0  0
    7.7935   -1.4757    0.0000 O   0  0
    9.1020   -3.7208    0.0000 N   0  0
   10.3991   -2.9659    0.0000 C   0  0
   11.7024   -3.7087    0.0000 C   0  0
   12.9972   -2.9515    0.0000 C   0  0
   12.9890   -1.4516    0.0000 C   0  0
   11.6859   -0.7087    0.0000 C   0  0
   11.6776    0.7913    0.0000 Cl  0  0
   10.3910   -1.4658    0.0000 C   0  0
    2.6004   -2.9949    0.0000 N   0  0
  1  2  1  0
  2  3  2  0
  3  4  1  0
  4  5  1  0
  5  6  3  0
  4  7  2  0
  7  8  1  0
  8  9  1  0
  8 10  2  0
 10  2  1  0
 10 11  1  0
 11 12  1  0
 12 13  2  0
 13 14  1  0
 14 15  2  0
 15 16  1  0
 16 17  1  0
 17 18  2  0
 17 19  2  0
 17 20  1  0
 20 21  1  0
 21 22  2  0
 21 23  1  0
 23 24  1  0
 24 25  2  0
 25 26  1  0
 26 27  2  0
 27 28  1  0
 28 29  1  0
 28 30  2  0
 30 24  1  0
 16 31  2  0
 31 12  1  0
M  END
> <Smiles>
Cc1cc(C#N)cc(C)c1Oc1ccnc(S(=O)(=O)CC(=O)Nc2cccc(Cl)c2)n1

> <IC50_uM>
0.978

> <pIC50>
6.009661145

> <Activity>
1

$$$$

  SciTegic10102310092D

 45 47  0  0  1  0            999 V2000
    1.4434   -6.3786    0.0000 C   0  0
    0.5583   -5.1676    0.0000 O   0  0
    1.1640   -3.7944    0.0000 C   0  0
    2.6552   -3.6329    0.0000 O   0  0
    0.2783   -2.5827    0.0000 C   0  0
    0.8840   -1.2095    0.0000 C   0  0
    0.0000    0.0000    0.0000 C   0  0
   -1.5043    0.0000    0.0000 C   0  0
   -2.3910   -1.2099    0.0000 N   0  0
   -1.9556    1.4291    0.0000 C   0  0  1  0  0  0
   -0.7521    2.3016    0.0000 O   0  0
    0.4513    1.4291    0.0000 S   0  0
    1.5553    0.4136    0.0000 O   0  0
    0.7341    2.9022    0.0000 O   0  0
   -2.4219    2.8581    0.0000 C   0  0  1  0  0  0
   -1.5393    4.0688    0.0000 C   0  0
   -0.0469    3.9105    0.0000 O   0  0
    0.8372    5.1233    0.0000 Si  0  0
    0.2289    6.4944    0.0000 C   0  0
   -0.6543    5.2822    0.0000 C   0  0
    2.3297    4.9650    0.0000 C   0  0
    3.2133    6.1771    0.0000 C   0  0
    2.9380    3.5939    0.0000 C   0  0
    3.8212    4.8061    0.0000 C   0  0
   -3.9262    2.8581    0.0000 O   0  0
   -4.3925    1.4291    0.0000 C   0  0  1  0  0  0
   -5.8923    1.4833    0.0000 N   0  0
   -6.5872    0.1520    0.0000 C   0  0
   -8.0861    0.0931    0.0000 C   0  0
   -8.7844   -1.2344    0.0000 C   0  0
   -8.8865    1.3616    0.0000 C   0  0
  -10.3854    1.3027    0.0000 O   0  0
   -8.1882    2.6891    0.0000 N   0  0
   -8.9887    3.9577    0.0000 C   0  0
   -6.6894    2.7481    0.0000 C   0  0
   -5.9906    4.0754    0.0000 O   0  0
   -3.1740    0.5415    0.0000 C   0  0  2  0  0  0
   -3.1771   -0.9566    0.0000 O   0  0
   -4.4780   -1.7051    0.0000 Si  0  0
   -5.7757   -0.9528    0.0000 C   0  0
   -4.4756   -0.2051    0.0000 C   0  0
   -4.4811   -3.2060    0.0000 C   0  0
   -5.7812   -3.9541    0.0000 C   0  0
   -3.1834   -3.9582    0.0000 C   0  0
   -4.4835   -4.7060    0.0000 C   0  0
  1  2  1  0
  2  3  1  0
  3  4  2  0
  3  5  1  0
  5  6  2  0
  6  7  1  0
  7  8  2  0
  8  9  1  0
  8 10  1  0
 10 11  1  1
 11 12  1  0
 12  7  1  0
 12 13  2  0
 12 14  2  0
 10 15  1  0
 15 16  1  6
 16 17  1  0
 17 18  1  0
 18 19  1  0
 18 20  1  0
 18 21  1  0
 21 22  1  0
 21 23  1  0
 21 24  1  0
 15 25  1  0
 25 26  1  0
 26 27  1  6
 27 28  1  0
 28 29  2  0
 29 30  1  0
 29 31  1  0
 31 32  2  0
 31 33  1  0
 33 34  1  0
 33 35  1  0
 35 27  1  0
 35 36  2  0
 26 37  1  0
 37 10  1  0
 37 38  1  1
 38 39  1  0
 39 40  1  0
 39 41  1  0
 39 42  1  0
 42 43  1  0
 42 44  1  0
 42 45  1  0
M  END
> <Smiles>
COC(=O)/C=C/C1=C(N)[C@@]2(OS1(=O)=O)[C@@H](CO[Si](C)(C)C(C)(C)C)O[C@@H](n1cc(C)c(=O)n(C)c1=O)[C@@H]2O[Si](C)(C)C(C)(C)C

> <IC50_uM>
0.98

> <pIC50>
6.008773924

> <Activity>
1

$$$$

  SciTegic10102310092D

 35 39  0  0  0  0            999 V2000
    2.5923    1.5001    0.0000 C   0  0
    3.8939    0.7546    0.0000 C   0  0
    5.1903    1.5091    0.0000 C   0  0
    6.4920    0.7636    0.0000 C   0  0
    7.7891    1.5185    0.0000 C   0  0
    9.0856    2.2729    0.0000 N   0  0
    6.4972   -0.7364    0.0000 C   0  0
    5.2007   -1.4909    0.0000 C   0  0
    5.2059   -2.9909    0.0000 C   0  0
    3.8990   -0.7455    0.0000 C   0  0
    2.6003   -1.4977    0.0000 O   0  0
    1.2990   -0.7500    0.0000 C   0  0
    1.2990    0.7500    0.0000 N   0  0
    0.0000    1.5000    0.0000 C   0  0
   -0.0031    3.0008    0.0000 N   0  0
   -1.3039    3.7494    0.0000 C   0  0  3  0  0  0
   -1.3092    5.2494    0.0000 C   0  0
   -2.6108    5.9949    0.0000 C   0  0
   -3.9073    5.2404    0.0000 C   0  0  3  0  0  0
   -5.2112    5.9836    0.0000 N   0  0
   -6.5072    5.2269    0.0000 C   0  0
   -7.8111    5.9701    0.0000 C   0  0
   -9.1076    5.2156    0.0000 C   0  0
  -10.4092    5.9611    0.0000 C   0  0
  -10.4145    7.4611    0.0000 C   0  0
   -9.1180    8.2156    0.0000 C   0  0
   -7.8164    7.4702    0.0000 C   0  0
   -3.9021    3.7404    0.0000 C   0  0
   -2.6005    2.9949    0.0000 C   0  0
   -1.2990    0.7500    0.0000 N   0  0
   -1.2990   -0.7500    0.0000 C   0  0
   -2.4133   -1.7530    0.0000 C   0  0
   -1.8032   -3.1233    0.0000 C   0  0
   -0.3114   -2.9665    0.0000 S   0  0
    0.0000   -1.5000    0.0000 C   0  0
  1  2  1  0
  2  3  2  0
  3  4  1  0
  4  5  1  0
  5  6  3  0
  4  7  2  0
  7  8  1  0
  8  9  1  0
  8 10  2  0
 10  2  1  0
 10 11  1  0
 11 12  1  0
 12 13  2  0
 13 14  1  0
 14 15  1  0
 16 15  1  4
 16 17  1  0
 17 18  1  0
 18 19  1  0
 19 20  1  4
 20 21  1  0
 21 22  1  0
 22 23  2  0
 23 24  1  0
 24 25  2  0
 25 26  1  0
 26 27  2  0
 27 22  1  0
 19 28  1  0
 28 29  1  0
 29 16  1  0
 14 30  2  0
 30 31  1  0
 31 32  1  0
 32 33  2  0
 33 34  1  0
 34 35  1  0
 35 12  1  0
 35 31  2  0
M  END
> <Smiles>
Cc1cc(C#N)cc(C)c1Oc1nc(NC2CCC(NCc3ccccc3)CC2)nc2ccsc12

> <IC50_uM>
0.983

> <pIC50>
6.007446482

> <Activity>
1

$$$$

  SciTegic10102310092D

 34 37  0  0  0  0            999 V2000
    5.1996   -1.4928    0.0000 C   0  0
    3.8990   -0.7455    0.0000 C   0  0
    2.6003   -1.4977    0.0000 C   0  0
    1.2990   -0.7500    0.0000 C   0  0
    1.2990    0.7500    0.0000 C   0  0
    0.0000    1.5000    0.0000 C   0  0
    0.0031    3.0008    0.0000 O   0  0
    1.3039    3.7494    0.0000 C   0  0
    2.6004    2.9949    0.0000 C   0  0
    3.9020    3.7405    0.0000 C   0  0
    3.9072    5.2405    0.0000 C   0  0
    2.6108    5.9949    0.0000 C   0  0
    1.3092    5.2494    0.0000 C   0  0
    0.0136    6.0070    0.0000 O   0  0
    0.0209    7.5078    0.0000 C   0  0
   -1.2746    8.2654    0.0000 C   0  0
   -1.2673    9.7662    0.0000 N   0  0
    0.0370   10.5073    0.0000 C   0  0
    0.0474   12.0073    0.0000 C   0  0
   -1.2464   12.7663    0.0000 C   0  0
   -1.2360   14.2662    0.0000 O   0  0
   -2.5506   12.0253    0.0000 N   0  0
   -2.5610   10.5253    0.0000 C   0  0
   -3.8653    9.7844    0.0000 O   0  0
   -1.2990    0.7500    0.0000 C   0  0
   -2.5981    1.5000    0.0000 C   0  0
   -1.2990   -0.7500    0.0000 C   0  0
   -2.5981   -1.5000    0.0000 C   0  0
   -2.5981   -3.0000    0.0000 C   0  0
   -3.8978   -3.7504    0.0000 C   0  0
   -5.1968   -4.5004    0.0000 N   0  0
   -1.2990   -3.7500    0.0000 C   0  0
    0.0000   -3.0000    0.0000 C   0  0
    0.0000   -1.5000    0.0000 C   0  0
  1  2  1  0
  2  3  1  0
  3  4  1  0
  4  5  2  0
  5  6  1  0
  6  7  1  0
  7  8  1  0
  8  9  2  0
  9 10  1  0
 10 11  2  0
 11 12  1  0
 12 13  2  0
 13  8  1  0
 13 14  1  0
 14 15  1  0
 15 16  1  0
 16 17  1  0
 17 18  1  0
 18 19  2  0
 19 20  1  0
 20 21  2  0
 20 22  1  0
 22 23  1  0
 23 17  1  0
 23 24  2  0
  6 25  2  0
 25 26  1  0
 25 27  1  0
 27 28  2  0
 28 29  1  0
 29 30  1  0
 30 31  3  0
 29 32  2  0
 32 33  1  0
 33 34  2  0
 34  4  1  0
 34 27  1  0
M  END
> <Smiles>
CCCc1cc(Oc2ccccc2OCCn2ccc(=O)[nH]c2=O)c(C)c2cc(C#N)ccc12

> <IC50_uM>
0.99

> <pIC50>
6.004364805

> <Activity>
1

$$$$
